Program Version,EnergyPlus, Version 9.4.0-998c4b761e, YMD=2021.08.21 15:23
! <Version>, Version ID
 Version, 9.4
! <Timesteps per Hour>, #TimeSteps, Minutes per TimeStep {minutes}
 Timesteps per Hour,  6, 10
! <System Convergence Limits>, Minimum System TimeStep {minutes}, Max HVAC Iterations, Minimum Plant Iterations, Maximum Plant Iterations
 System Convergence Limits, 2, 25, 2, 8
! <Simulation Control>, Do Zone Sizing, Do System Sizing, Do Plant Sizing, Do Design Days, Do Weather Simulation, Do HVAC Sizing Simulation
 Simulation Control, Yes, Yes, Yes, Yes, Yes, Yes
! <Performance Precision Tradeoffs>, Use Coil Direct Simulation, Zone Radiant Exchange Algorithm, Override Mode, Number of Timestep In Hour, Force Euler Method, Minimum Number of Warmup Days, Force Suppress All Begin Environment Resets, Minimum System Timestep, MaxZoneTempDiff, MaxAllowedDelTemp
 Performance Precision Tradeoffs, No, ScriptF, Normal, 6, No, 1, No, 2.0, 0.300, 2.0000E-003
! <Output Reporting Tolerances>, Tolerance for Time Heating Setpoint Not Met, Tolerance for Zone Cooling Setpoint Not Met Time
 Output Reporting Tolerances, 0.556, 0.556, 
! <Site:GroundTemperature:BuildingSurface>,Jan{C},Feb{C},Mar{C},Apr{C},May{C},Jun{C},Jul{C},Aug{C},Sep{C},Oct{C},Nov{C},Dec{C}
 Site:GroundTemperature:BuildingSurface,  19.53,  19.50,  19.54,  19.60,  20.00,  21.64,  22.23,  22.38,  21.45,  20.12,  19.80,  19.63
! <Site:GroundTemperature:FCfactorMethod>,Jan{C},Feb{C},Mar{C},Apr{C},May{C},Jun{C},Jul{C},Aug{C},Sep{C},Oct{C},Nov{C},Dec{C}
 Site:GroundTemperature:FCfactorMethod,  -1.89,  -3.06,  -0.99,   2.23,  10.68,  17.20,  21.60,  22.94,  20.66,  15.60,   8.83,   2.56
! <Site:GroundTemperature:Shallow>,Jan{C},Feb{C},Mar{C},Apr{C},May{C},Jun{C},Jul{C},Aug{C},Sep{C},Oct{C},Nov{C},Dec{C}
 Site:GroundTemperature:Shallow,  13.00,  13.00,  13.00,  13.00,  13.00,  13.00,  13.00,  13.00,  13.00,  13.00,  13.00,  13.00
! <Site:GroundTemperature:Deep>,Jan{C},Feb{C},Mar{C},Apr{C},May{C},Jun{C},Jul{C},Aug{C},Sep{C},Oct{C},Nov{C},Dec{C}
 Site:GroundTemperature:Deep,  16.00,  16.00,  16.00,  16.00,  16.00,  16.00,  16.00,  16.00,  16.00,  16.00,  16.00,  16.00
! <Site:GroundReflectance>,Jan{dimensionless},Feb{dimensionless},Mar{dimensionless},Apr{dimensionless},May{dimensionless},Jun{dimensionless},Jul{dimensionless},Aug{dimensionless},Sep{dimensionless},Oct{dimensionless},Nov{dimensionless},Dec{dimensionless}
 Site:GroundReflectance,  0.20,  0.20,  0.20,  0.20,  0.20,  0.20,  0.20,  0.20,  0.20,  0.20,  0.20,  0.20
! <Site:GroundReflectance:SnowModifier>, Normal, Daylighting {dimensionless}
 Site:GroundReflectance:SnowModifier,   1.000,   1.000
! <Site:GroundReflectance:Snow>,Jan{dimensionless},Feb{dimensionless},Mar{dimensionless},Apr{dimensionless},May{dimensionless},Jun{dimensionless},Jul{dimensionless},Aug{dimensionless},Sep{dimensionless},Oct{dimensionless},Nov{dimensionless},Dec{dimensionless}
 Site:GroundReflectance:Snow,  0.20,  0.20,  0.20,  0.20,  0.20,  0.20,  0.20,  0.20,  0.20,  0.20,  0.20,  0.20
! <Site:GroundReflectance:Snow:Daylighting>,Jan{dimensionless},Feb{dimensionless},Mar{dimensionless},Apr{dimensionless},May{dimensionless},Jun{dimensionless},Jul{dimensionless},Aug{dimensionless},Sep{dimensionless},Oct{dimensionless},Nov{dimensionless},Dec{dimensionless}
 Site:GroundReflectance:Snow:Daylighting,  0.20,  0.20,  0.20,  0.20,  0.20,  0.20,  0.20,  0.20,  0.20,  0.20,  0.20,  0.20
! <Environment:Weather Station>,Wind Sensor Height Above Ground {m},Wind Speed Profile Exponent {},Wind Speed Profile Boundary Layer Thickness {m},Air Temperature Sensor Height Above Ground {m},Wind Speed Modifier Coefficient-Internal,Temperature Modifier Coefficient-Internal
Environment:Weather Station,10.000,0.140,270.000,1.500,1.586,9.750E-003
! <Site:Location>, Location Name, Latitude {N+/S- Deg}, Longitude {E+/W- Deg},  Time Zone Number {GMT+/-}, Elevation {m},  Standard Pressure at Elevation {Pa}, Standard RhoAir at Elevation
Site:Location,Chicago Ohare Intl Ap IL USA TMY3 WMO#=725300,41.98,-87.92,-6.00,201.00,98934,1.1759
! <Site Water Mains Temperature Information>,Calculation Method{},Water Mains Temperature Schedule Name{},Annual Average Outdoor Air Temperature{C},Maximum Difference In Monthly Average Outdoor Air Temperatures{deltaC},Fixed Default Water Mains Temperature{C}
Site Water Mains Temperature Information,Correlation,NA,9.69,28.10,NA
! <Building Information>, Building Name,North Axis {deg},Terrain,  Loads Convergence Tolerance Value,Temperature Convergence Tolerance Value,  Solar Distribution,Maximum Number of Warmup Days,Minimum Number of Warmup Days
 Building Information,Ref Bldg Medium Office New2004_v1.3_5.0,0.000,City,4.00000E-002,0.20000,FullInteriorAndExterior,25,6
! <Inside Convection Algorithm>, Algorithm {Simple | TARP | CeilingDiffuser | AdaptiveConvectionAlgorithm}
Inside Convection Algorithm,TARP
! <Outside Convection Algorithm>, Algorithm {SimpleCombined | TARP | MoWitt | DOE-2 | AdaptiveConvectionAlgorithm}
Outside Convection Algorithm,DOE-2
! <Sky Radiance Distribution>, Value {Anisotropic}
Sky Radiance Distribution,Anisotropic
! <Zone Air Solution Algorithm>, Value {ThirdOrderBackwardDifference | AnalyticalSolution | EulerMethod}
 Zone Air Solution Algorithm, AnalyticalSolution
! <Zone Air Carbon Dioxide Balance Simulation>, Simulation {Yes/No}, Carbon Dioxide Concentration
 Zone Air Carbon Dioxide Balance Simulation, No,N/A
! <Zone Air Generic Contaminant Balance Simulation>, Simulation {Yes/No}, Generic Contaminant Concentration
 Zone Air Generic Contaminant Balance Simulation, No,N/A
! <Zone Air Mass Flow Balance Simulation>, Enforce Mass Balance, Adjust Zone Mixing, Adjust Zone Infiltration {AddInfiltration | AdjustInfiltration | None}, Infiltration Zones {MixingSourceZonesOnly | AllZones}
 Zone Air Mass Flow Balance Simulation, No,N/A,N/A,N/A
! <HVACSystemRootFindingAlgorithm>, Value {RegulaFalsi | Bisection | BisectionThenRegulaFalsi | RegulaFalsiThenBisection}
 HVACSystemRootFindingAlgorithm, RegulaFalsi
! <Environment:Site Atmospheric Variation>,Wind Speed Profile Exponent {},Wind Speed Profile Boundary Layer Thickness {m},Air Temperature Gradient Coefficient {K/m}
Environment:Site Atmospheric Variation,0.330,460.000,6.500000E-003
! <Surface Geometry>,Starting Corner,Vertex Input Direction,Coordinate System,Daylight Reference Point Coordinate System,Rectangular (Simple) Surface Coordinate System
 Surface Geometry,UpperLeftCorner,Counterclockwise,RelativeCoordinateSystem,RelativeCoordinateSystem,RelativeToZoneOrigin
! <Surface Heat Transfer Algorithm>, Value {CTF - ConductionTransferFunction | EMPD - MoisturePenetrationDepthConductionTransferFunction | CondFD - ConductionFiniteDifference | HAMT - CombinedHeatAndMoistureFiniteElement} - Description,Inside Surface Max Temperature Limit{C}, Surface Convection Coefficient Lower Limit {W/m2-K}, Surface Convection Coefficient Upper Limit {W/m2-K}
Surface Heat Transfer Algorithm, CTF - ConductionTransferFunction,200,0.10,1000.0
! <Shading Summary>, Number of Fixed Detached Shades, Number of Building Detached Shades, Number of Attached Shades
 Shading Summary,0,0,0
! <Zone Summary>, Number of Zones, Number of Zone Surfaces, Number of SubSurfaces
 Zone Summary,18,155,12
! <Zone Information>,Zone Name,North Axis {deg},Origin X-Coordinate {m},Origin Y-Coordinate {m},Origin Z-Coordinate {m},Centroid X-Coordinate {m},Centroid Y-Coordinate {m},Centroid Z-Coordinate {m},Type,Zone Multiplier,Zone List Multiplier,Minimum X {m},Maximum X {m},Minimum Y {m},Maximum Y {m},Minimum Z {m},Maximum Z {m},Ceiling Height {m},Volume {m3},Zone Inside Convection Algorithm {Simple-Detailed-CeilingDiffuser-TrombeWall},Zone Outside Convection Algorithm {Simple-Detailed-Tarp-MoWitt-DOE-2-BLAST}, Floor Area {m2},Exterior Gross Wall Area {m2},Exterior Net Wall Area {m2},Exterior Window Area {m2}, Number of Surfaces, Number of SubSurfaces, Number of Shading SubSurfaces,  Part of Total Building Area
 Zone Information, CORE_BOTTOM,0.0,0.00,0.00,0.00,24.96,16.64,1.37,1,1,1,4.57,45.34,4.57,28.70,0.00,2.74,2.74,2698.04,TARP,DOE-2,983.54,0.00,0.00,0.00,6,0,0,Yes
 Zone Information, CORE_MID,0.0,0.00,0.00,0.00,24.96,16.64,5.33,1,1,1,4.57,45.34,4.57,28.70,3.96,6.71,2.74,2698.04,TARP,DOE-2,983.54,0.00,0.00,0.00,6,0,0,Yes
 Zone Information, CORE_TOP,0.0,0.00,0.00,0.00,24.96,16.64,9.30,1,1,1,4.57,45.34,4.57,28.70,7.92,10.67,2.74,2698.04,TARP,DOE-2,983.54,0.00,0.00,0.00,6,0,0,Yes
 Zone Information, FIRSTFLOOR_PLENUM,0.0,0.00,0.00,0.00,24.96,16.64,3.35,1,1,1,0.00,49.91,0.00,33.27,2.74,3.96,1.22,2024.76,TARP,DOE-2,1660.73,202.84,202.84,0.00,14,0,0,No
 Zone Information, MIDFLOOR_PLENUM,0.0,0.00,0.00,0.00,24.96,16.64,7.32,1,1,1,0.00,49.91,0.00,33.27,6.71,7.92,1.22,2024.76,TARP,DOE-2,1660.73,202.84,202.84,0.00,14,0,0,No
 Zone Information, PERIMETER_BOT_ZN_1,0.0,0.00,0.00,0.00,24.96,2.16,1.37,1,1,1,0.00,49.91,0.00,4.57,0.00,2.74,2.74,568.77,TARP,DOE-2,207.34,136.92,71.63,65.28,6,1,0,Yes
 Zone Information, PERIMETER_BOT_ZN_2,0.0,0.00,0.00,0.00,47.82,16.64,1.37,1,1,1,45.34,49.91,0.00,33.27,0.00,2.74,2.74,360.08,TARP,DOE-2,131.26,91.28,47.75,43.52,6,1,0,Yes
 Zone Information, PERIMETER_BOT_ZN_3,0.0,0.00,0.00,0.00,24.96,31.11,1.37,1,1,1,0.00,49.91,28.70,33.27,0.00,2.74,2.74,568.77,TARP,DOE-2,207.34,136.92,71.63,65.28,6,1,0,Yes
 Zone Information, PERIMETER_BOT_ZN_4,0.0,0.00,0.00,0.00,2.09,16.64,1.37,1,1,1,0.00,4.57,0.00,33.27,0.00,2.74,2.74,360.05,TARP,DOE-2,131.25,91.28,47.75,43.52,6,1,0,Yes
 Zone Information, PERIMETER_MID_ZN_1,0.0,0.00,0.00,0.00,24.96,2.16,5.33,1,1,1,0.00,49.91,0.00,4.57,3.96,6.71,2.74,568.77,TARP,DOE-2,207.34,136.92,71.63,65.28,6,1,0,Yes
 Zone Information, PERIMETER_MID_ZN_2,0.0,0.00,0.00,0.00,47.82,16.64,5.33,1,1,1,45.34,49.91,0.00,33.27,3.96,6.71,2.74,360.08,TARP,DOE-2,131.26,91.28,47.75,43.52,6,1,0,Yes
 Zone Information, PERIMETER_MID_ZN_3,0.0,0.00,0.00,0.00,24.96,31.11,5.33,1,1,1,0.00,49.91,28.70,33.27,3.96,6.71,2.74,568.77,TARP,DOE-2,207.34,136.92,71.63,65.28,6,1,0,Yes
 Zone Information, PERIMETER_MID_ZN_4,0.0,0.00,0.00,0.00,2.09,16.64,5.33,1,1,1,0.00,4.57,0.00,33.27,3.96,6.71,2.74,360.05,TARP,DOE-2,131.25,91.28,47.75,43.52,6,1,0,Yes
 Zone Information, PERIMETER_TOP_ZN_1,0.0,0.00,0.00,0.00,24.96,2.16,9.30,1,1,1,0.00,49.91,0.00,4.57,7.92,10.67,2.74,568.77,TARP,DOE-2,207.34,136.92,71.63,65.28,6,1,0,Yes
 Zone Information, PERIMETER_TOP_ZN_2,0.0,0.00,0.00,0.00,47.82,16.64,9.30,1,1,1,45.34,49.91,0.00,33.27,7.92,10.67,2.74,360.08,TARP,DOE-2,131.26,91.28,47.75,43.52,6,1,0,Yes
 Zone Information, PERIMETER_TOP_ZN_3,0.0,0.00,0.00,0.00,24.96,31.11,9.30,1,1,1,0.00,49.91,28.70,33.27,7.92,10.67,2.74,568.77,TARP,DOE-2,207.34,136.92,71.63,65.28,6,1,0,Yes
 Zone Information, PERIMETER_TOP_ZN_4,0.0,0.00,0.00,0.00,2.09,16.64,9.30,1,1,1,0.00,4.57,0.00,33.27,7.92,10.67,2.74,360.05,TARP,DOE-2,131.25,91.28,47.75,43.52,6,1,0,Yes
 Zone Information, TOPFLOOR_PLENUM,0.0,0.00,0.00,0.00,24.96,16.64,11.28,1,1,1,0.00,49.91,0.00,33.27,10.67,11.89,1.22,2024.76,TARP,DOE-2,1660.73,202.84,202.84,0.00,10,0,0,No
! <Zone Internal Gains Nominal>,Zone Name, Floor Area {m2},# Occupants,Area per Occupant {m2/person},Occupant per Area {person/m2},Interior Lighting {W/m2},Electric Load {W/m2},Gas Load {W/m2},Other Load {W/m2},Hot Water Eq {W/m2},Steam Equipment {W/m2},Sum Loads per Area {W/m2},Outdoor Controlled Baseboard Heat
 Zone Internal Gains Nominal, CORE_BOTTOM,983.54,52.9,18.580,5.382E-002,10.760,43.407,0.000,0.000,0.000,0.000,54.167,No
 Zone Internal Gains Nominal, CORE_MID,983.54,52.9,18.580,5.382E-002,10.760,10.760,0.000,0.000,0.000,0.000,21.520,No
 Zone Internal Gains Nominal, CORE_TOP,983.54,52.9,18.580,5.382E-002,10.760,10.760,0.000,0.000,0.000,0.000,21.520,No
 Zone Internal Gains Nominal, FIRSTFLOOR_PLENUM,1660.73,0.0,N/A,0.000,0.000,0.000,0.000,0.000,0.000,0.000,0.000,No
 Zone Internal Gains Nominal, MIDFLOOR_PLENUM,1660.73,0.0,N/A,0.000,0.000,0.000,0.000,0.000,0.000,0.000,0.000,No
 Zone Internal Gains Nominal, PERIMETER_BOT_ZN_1,207.34,11.2,18.580,5.382E-002,10.760,10.760,0.000,0.000,0.000,0.000,21.520,No
 Zone Internal Gains Nominal, PERIMETER_BOT_ZN_2,131.26,7.1,18.580,5.382E-002,10.760,10.760,0.000,0.000,0.000,0.000,21.520,No
 Zone Internal Gains Nominal, PERIMETER_BOT_ZN_3,207.34,11.2,18.580,5.382E-002,10.760,10.760,0.000,0.000,0.000,0.000,21.520,No
 Zone Internal Gains Nominal, PERIMETER_BOT_ZN_4,131.25,7.1,18.580,5.382E-002,10.760,10.760,0.000,0.000,0.000,0.000,21.520,No
 Zone Internal Gains Nominal, PERIMETER_MID_ZN_1,207.34,11.2,18.580,5.382E-002,10.760,10.760,0.000,0.000,0.000,0.000,21.520,No
 Zone Internal Gains Nominal, PERIMETER_MID_ZN_2,131.26,7.1,18.580,5.382E-002,10.760,10.760,0.000,0.000,0.000,0.000,21.520,No
 Zone Internal Gains Nominal, PERIMETER_MID_ZN_3,207.34,11.2,18.580,5.382E-002,10.760,10.760,0.000,0.000,0.000,0.000,21.520,No
 Zone Internal Gains Nominal, PERIMETER_MID_ZN_4,131.25,7.1,18.580,5.382E-002,10.760,10.760,0.000,0.000,0.000,0.000,21.520,No
 Zone Internal Gains Nominal, PERIMETER_TOP_ZN_1,207.34,11.2,18.580,5.382E-002,10.760,10.760,0.000,0.000,0.000,0.000,21.520,No
 Zone Internal Gains Nominal, PERIMETER_TOP_ZN_2,131.26,7.1,18.580,5.382E-002,10.760,10.760,0.000,0.000,0.000,0.000,21.520,No
 Zone Internal Gains Nominal, PERIMETER_TOP_ZN_3,207.34,11.2,18.580,5.382E-002,10.760,10.760,0.000,0.000,0.000,0.000,21.520,No
 Zone Internal Gains Nominal, PERIMETER_TOP_ZN_4,131.25,7.1,18.580,5.382E-002,10.760,10.760,0.000,0.000,0.000,0.000,21.520,No
 Zone Internal Gains Nominal, TOPFLOOR_PLENUM,1660.73,0.0,N/A,0.000,0.000,0.000,0.000,0.000,0.000,0.000,0.000,No
! <People Internal Gains Nominal>,Name,Schedule Name,Zone Name,Zone Floor Area {m2},# Zone Occupants,Number of People {},People/Floor Area {person/m2},Floor Area per person {m2/person},Fraction Radiant,Fraction Convected,Sensible Fraction Calculation,Activity level,ASHRAE 55 Warnings,Carbon Dioxide Generation Rate,Nominal Minimum Number of People,Nominal Maximum Number of People,MRT Calculation Type,Work Efficiency, Clothing Insulation Calculation Method,Clothing Insulation Calculation Method Schedule,Clothing,Air Velocity,Fanger Calculation,Pierce Calculation,KSU Calculation
 People Internal Gains Nominal, CORE_BOTTOM PEOPLE,BLDG_OCC_SCH,CORE_BOTTOM,983.54,52.9,52.9,5.382E-002,18.580,0.300,0.700,AutoCalculate,ACTIVITY_SCH,No,3.8200E-008,0,53,Zone Averaged,WORK_EFF_SCH,Clothing Insulation Schedule,N/A,CLOTHING_SCH,AIR_VELO_SCH,Yes,No,No
 People Internal Gains Nominal, CORE_MID PEOPLE,BLDG_OCC_SCH,CORE_MID,983.54,52.9,52.9,5.382E-002,18.580,0.300,0.700,AutoCalculate,ACTIVITY_SCH,No,3.8200E-008,0,53,Zone Averaged,WORK_EFF_SCH,Clothing Insulation Schedule,N/A,CLOTHING_SCH,AIR_VELO_SCH,Yes,No,No
 People Internal Gains Nominal, CORE_TOP PEOPLE,BLDG_OCC_SCH,CORE_TOP,983.54,52.9,52.9,5.382E-002,18.580,0.300,0.700,AutoCalculate,ACTIVITY_SCH,No,3.8200E-008,0,53,Zone Averaged,WORK_EFF_SCH,Clothing Insulation Schedule,N/A,CLOTHING_SCH,AIR_VELO_SCH,Yes,No,No
 People Internal Gains Nominal, PERIMETER_BOT_ZN_1 PEOPLE,BLDG_OCC_SCH,PERIMETER_BOT_ZN_1,207.34,11.2,11.2,5.382E-002,18.580,0.300,0.700,AutoCalculate,ACTIVITY_SCH,No,3.8200E-008,0,11,Zone Averaged,WORK_EFF_SCH,Clothing Insulation Schedule,N/A,CLOTHING_SCH,AIR_VELO_SCH,Yes,No,No
 People Internal Gains Nominal, PERIMETER_BOT_ZN_2 PEOPLE,BLDG_OCC_SCH,PERIMETER_BOT_ZN_2,131.26,7.1,7.1,5.382E-002,18.580,0.300,0.700,AutoCalculate,ACTIVITY_SCH,No,3.8200E-008,0,7,Zone Averaged,WORK_EFF_SCH,Clothing Insulation Schedule,N/A,CLOTHING_SCH,AIR_VELO_SCH,Yes,No,No
 People Internal Gains Nominal, PERIMETER_BOT_ZN_3 PEOPLE,BLDG_OCC_SCH,PERIMETER_BOT_ZN_3,207.34,11.2,11.2,5.382E-002,18.580,0.300,0.700,AutoCalculate,ACTIVITY_SCH,No,3.8200E-008,0,11,Zone Averaged,WORK_EFF_SCH,Clothing Insulation Schedule,N/A,CLOTHING_SCH,AIR_VELO_SCH,Yes,No,No
 People Internal Gains Nominal, PERIMETER_BOT_ZN_4 PEOPLE,BLDG_OCC_SCH,PERIMETER_BOT_ZN_4,131.25,7.1,7.1,5.382E-002,18.580,0.300,0.700,AutoCalculate,ACTIVITY_SCH,No,3.8200E-008,0,7,Zone Averaged,WORK_EFF_SCH,Clothing Insulation Schedule,N/A,CLOTHING_SCH,AIR_VELO_SCH,Yes,No,No
 People Internal Gains Nominal, PERIMETER_MID_ZN_1 PEOPLE,BLDG_OCC_SCH,PERIMETER_MID_ZN_1,207.34,11.2,11.2,5.382E-002,18.580,0.300,0.700,AutoCalculate,ACTIVITY_SCH,No,3.8200E-008,0,11,Zone Averaged,WORK_EFF_SCH,Clothing Insulation Schedule,N/A,CLOTHING_SCH,AIR_VELO_SCH,Yes,No,No
 People Internal Gains Nominal, PERIMETER_MID_ZN_2 PEOPLE,BLDG_OCC_SCH,PERIMETER_MID_ZN_2,131.26,7.1,7.1,5.382E-002,18.580,0.300,0.700,AutoCalculate,ACTIVITY_SCH,No,3.8200E-008,0,7,Zone Averaged,WORK_EFF_SCH,Clothing Insulation Schedule,N/A,CLOTHING_SCH,AIR_VELO_SCH,Yes,No,No
 People Internal Gains Nominal, PERIMETER_MID_ZN_3 PEOPLE,BLDG_OCC_SCH,PERIMETER_MID_ZN_3,207.34,11.2,11.2,5.382E-002,18.580,0.300,0.700,AutoCalculate,ACTIVITY_SCH,No,3.8200E-008,0,11,Zone Averaged,WORK_EFF_SCH,Clothing Insulation Schedule,N/A,CLOTHING_SCH,AIR_VELO_SCH,Yes,No,No
 People Internal Gains Nominal, PERIMETER_MID_ZN_4 PEOPLE,BLDG_OCC_SCH,PERIMETER_MID_ZN_4,131.25,7.1,7.1,5.382E-002,18.580,0.300,0.700,AutoCalculate,ACTIVITY_SCH,No,3.8200E-008,0,7,Zone Averaged,WORK_EFF_SCH,Clothing Insulation Schedule,N/A,CLOTHING_SCH,AIR_VELO_SCH,Yes,No,No
 People Internal Gains Nominal, PERIMETER_TOP_ZN_1 PEOPLE,BLDG_OCC_SCH,PERIMETER_TOP_ZN_1,207.34,11.2,11.2,5.382E-002,18.580,0.300,0.700,AutoCalculate,ACTIVITY_SCH,No,3.8200E-008,0,11,Zone Averaged,WORK_EFF_SCH,Clothing Insulation Schedule,N/A,CLOTHING_SCH,AIR_VELO_SCH,Yes,No,No
 People Internal Gains Nominal, PERIMETER_TOP_ZN_2 PEOPLE,BLDG_OCC_SCH,PERIMETER_TOP_ZN_2,131.26,7.1,7.1,5.382E-002,18.580,0.300,0.700,AutoCalculate,ACTIVITY_SCH,No,3.8200E-008,0,7,Zone Averaged,WORK_EFF_SCH,Clothing Insulation Schedule,N/A,CLOTHING_SCH,AIR_VELO_SCH,Yes,No,No
 People Internal Gains Nominal, PERIMETER_TOP_ZN_3 PEOPLE,BLDG_OCC_SCH,PERIMETER_TOP_ZN_3,207.34,11.2,11.2,5.382E-002,18.580,0.300,0.700,AutoCalculate,ACTIVITY_SCH,No,3.8200E-008,0,11,Zone Averaged,WORK_EFF_SCH,Clothing Insulation Schedule,N/A,CLOTHING_SCH,AIR_VELO_SCH,Yes,No,No
 People Internal Gains Nominal, PERIMETER_TOP_ZN_4 PEOPLE,BLDG_OCC_SCH,PERIMETER_TOP_ZN_4,131.25,7.1,7.1,5.382E-002,18.580,0.300,0.700,AutoCalculate,ACTIVITY_SCH,No,3.8200E-008,0,7,Zone Averaged,WORK_EFF_SCH,Clothing Insulation Schedule,N/A,CLOTHING_SCH,AIR_VELO_SCH,Yes,No,No
! <Lights Internal Gains Nominal>,Name,Schedule Name,Zone Name,Zone Floor Area {m2},# Zone Occupants,Lighting Level {W},Lights/Floor Area {W/m2},Lights per person {W/person},Fraction Return Air,Fraction Radiant,Fraction Short Wave,Fraction Convected,Fraction Replaceable,End-Use Category,Nominal Minimum Lighting Level {W},Nominal Maximum Lighting Level {W}
 Lights Internal Gains Nominal, CORE_BOTTOM_LIGHTS,BLDG_LIGHT_SCH,CORE_BOTTOM,983.54,52.9,10582.854,10.760,199.921,0.400,0.400,0.200,0.000,1.000,General,0.000,10582.854
 Lights Internal Gains Nominal, CORE_MID_LIGHTS,BLDG_LIGHT_SCH,CORE_MID,983.54,52.9,10582.854,10.760,199.921,0.400,0.400,0.200,0.000,1.000,General,0.000,10582.854
 Lights Internal Gains Nominal, CORE_TOP_LIGHTS,BLDG_LIGHT_SCH,CORE_TOP,983.54,52.9,10582.854,10.760,199.921,0.400,0.400,0.200,0.000,1.000,General,0.000,10582.854
 Lights Internal Gains Nominal, PERIMETER_BOT_ZN_1_LIGHTS,BLDG_LIGHT_SCH,PERIMETER_BOT_ZN_1,207.34,11.2,2230.958,10.760,199.921,0.400,0.400,0.200,0.000,1.000,General,0.000,2230.958
 Lights Internal Gains Nominal, PERIMETER_BOT_ZN_2_LIGHTS,BLDG_LIGHT_SCH,PERIMETER_BOT_ZN_2,131.26,7.1,1412.381,10.760,199.921,0.400,0.400,0.200,0.000,1.000,General,0.000,1412.381
 Lights Internal Gains Nominal, PERIMETER_BOT_ZN_3_LIGHTS,BLDG_LIGHT_SCH,PERIMETER_BOT_ZN_3,207.34,11.2,2230.958,10.760,199.921,0.400,0.400,0.200,0.000,1.000,General,0.000,2230.958
 Lights Internal Gains Nominal, PERIMETER_BOT_ZN_4_LIGHTS,BLDG_LIGHT_SCH,PERIMETER_BOT_ZN_4,131.25,7.1,1412.289,10.760,199.921,0.400,0.400,0.200,0.000,1.000,General,0.000,1412.289
 Lights Internal Gains Nominal, PERIMETER_MID_ZN_1_LIGHTS,BLDG_LIGHT_SCH,PERIMETER_MID_ZN_1,207.34,11.2,2230.958,10.760,199.921,0.400,0.400,0.200,0.000,1.000,General,0.000,2230.958
 Lights Internal Gains Nominal, PERIMETER_MID_ZN_2_LIGHTS,BLDG_LIGHT_SCH,PERIMETER_MID_ZN_2,131.26,7.1,1412.381,10.760,199.921,0.400,0.400,0.200,0.000,1.000,General,0.000,1412.381
 Lights Internal Gains Nominal, PERIMETER_MID_ZN_3_LIGHTS,BLDG_LIGHT_SCH,PERIMETER_MID_ZN_3,207.34,11.2,2230.958,10.760,199.921,0.400,0.400,0.200,0.000,1.000,General,0.000,2230.958
 Lights Internal Gains Nominal, PERIMETER_MID_ZN_4_LIGHTS,BLDG_LIGHT_SCH,PERIMETER_MID_ZN_4,131.25,7.1,1412.289,10.760,199.921,0.400,0.400,0.200,0.000,1.000,General,0.000,1412.289
 Lights Internal Gains Nominal, PERIMETER_TOP_ZN_1_LIGHTS,BLDG_LIGHT_SCH,PERIMETER_TOP_ZN_1,207.34,11.2,2230.958,10.760,199.921,0.400,0.400,0.200,0.000,1.000,General,0.000,2230.958
 Lights Internal Gains Nominal, PERIMETER_TOP_ZN_2_LIGHTS,BLDG_LIGHT_SCH,PERIMETER_TOP_ZN_2,131.26,7.1,1412.381,10.760,199.921,0.400,0.400,0.200,0.000,1.000,General,0.000,1412.381
 Lights Internal Gains Nominal, PERIMETER_TOP_ZN_3_LIGHTS,BLDG_LIGHT_SCH,PERIMETER_TOP_ZN_3,207.34,11.2,2230.958,10.760,199.921,0.400,0.400,0.200,0.000,1.000,General,0.000,2230.958
 Lights Internal Gains Nominal, PERIMETER_TOP_ZN_4_LIGHTS,BLDG_LIGHT_SCH,PERIMETER_TOP_ZN_4,131.25,7.1,1412.289,10.760,199.921,0.400,0.400,0.200,0.000,1.000,General,0.000,1412.289
! <ElectricEquipment Internal Gains Nominal>,Name,Schedule Name,Zone Name,Zone Floor Area {m2},# Zone Occupants,Equipment Level {W},Equipment/Floor Area {W/m2},Equipment per person {W/person},Fraction Latent,Fraction Radiant,Fraction Lost,Fraction Convected,End-Use SubCategory,Nominal Minimum Equipment Level {W},Nominal Maximum Equipment Level {W}
 ElectricEquipment Internal Gains Nominal, CORE_BOTTOM_PLUGMISC_EQUIP,BLDG_EQUIP_SCH,CORE_BOTTOM,983.54,52.9,10582.854,10.760,199.921,0.000,0.500,0.000,0.500,General,0.000,10582.854
 ElectricEquipment Internal Gains Nominal, CORE_MID_PLUGMISC_EQUIP,BLDG_EQUIP_SCH,CORE_MID,983.54,52.9,10582.854,10.760,199.921,0.000,0.500,0.000,0.500,General,0.000,10582.854
 ElectricEquipment Internal Gains Nominal, CORE_TOP_PLUGMISC_EQUIP,BLDG_EQUIP_SCH,CORE_TOP,983.54,52.9,10582.854,10.760,199.921,0.000,0.500,0.000,0.500,General,0.000,10582.854
 ElectricEquipment Internal Gains Nominal, PERIMETER_BOT_ZN_1_PLUGMISC_EQUIP,BLDG_EQUIP_SCH,PERIMETER_BOT_ZN_1,207.34,11.2,2230.958,10.760,199.921,0.000,0.500,0.000,0.500,General,0.000,2230.958
 ElectricEquipment Internal Gains Nominal, PERIMETER_BOT_ZN_2_PLUGMISC_EQUIP,BLDG_EQUIP_SCH,PERIMETER_BOT_ZN_2,131.26,7.1,1412.381,10.760,199.921,0.000,0.500,0.000,0.500,General,0.000,1412.381
 ElectricEquipment Internal Gains Nominal, PERIMETER_BOT_ZN_3_PLUGMISC_EQUIP,BLDG_EQUIP_SCH,PERIMETER_BOT_ZN_3,207.34,11.2,2230.958,10.760,199.921,0.000,0.500,0.000,0.500,General,0.000,2230.958
 ElectricEquipment Internal Gains Nominal, PERIMETER_BOT_ZN_4_PLUGMISC_EQUIP,BLDG_EQUIP_SCH,PERIMETER_BOT_ZN_4,131.25,7.1,1412.289,10.760,199.921,0.000,0.500,0.000,0.500,General,0.000,1412.289
 ElectricEquipment Internal Gains Nominal, PERIMETER_MID_ZN_1_PLUGMISC_EQUIP,BLDG_EQUIP_SCH,PERIMETER_MID_ZN_1,207.34,11.2,2230.958,10.760,199.921,0.000,0.500,0.000,0.500,General,0.000,2230.958
 ElectricEquipment Internal Gains Nominal, PERIMETER_MID_ZN_2_PLUGMISC_EQUIP,BLDG_EQUIP_SCH,PERIMETER_MID_ZN_2,131.26,7.1,1412.381,10.760,199.921,0.000,0.500,0.000,0.500,General,0.000,1412.381
 ElectricEquipment Internal Gains Nominal, PERIMETER_MID_ZN_3_PLUGMISC_EQUIP,BLDG_EQUIP_SCH,PERIMETER_MID_ZN_3,207.34,11.2,2230.958,10.760,199.921,0.000,0.500,0.000,0.500,General,0.000,2230.958
 ElectricEquipment Internal Gains Nominal, PERIMETER_MID_ZN_4_PLUGMISC_EQUIP,BLDG_EQUIP_SCH,PERIMETER_MID_ZN_4,131.25,7.1,1412.289,10.760,199.921,0.000,0.500,0.000,0.500,General,0.000,1412.289
 ElectricEquipment Internal Gains Nominal, PERIMETER_TOP_ZN_1_PLUGMISC_EQUIP,BLDG_EQUIP_SCH,PERIMETER_TOP_ZN_1,207.34,11.2,2230.958,10.760,199.921,0.000,0.500,0.000,0.500,General,0.000,2230.958
 ElectricEquipment Internal Gains Nominal, PERIMETER_TOP_ZN_2_PLUGMISC_EQUIP,BLDG_EQUIP_SCH,PERIMETER_TOP_ZN_2,131.26,7.1,1412.381,10.760,199.921,0.000,0.500,0.000,0.500,General,0.000,1412.381
 ElectricEquipment Internal Gains Nominal, PERIMETER_TOP_ZN_3_PLUGMISC_EQUIP,BLDG_EQUIP_SCH,PERIMETER_TOP_ZN_3,207.34,11.2,2230.958,10.760,199.921,0.000,0.500,0.000,0.500,General,0.000,2230.958
 ElectricEquipment Internal Gains Nominal, PERIMETER_TOP_ZN_4_PLUGMISC_EQUIP,BLDG_EQUIP_SCH,PERIMETER_TOP_ZN_4,131.25,7.1,1412.289,10.760,199.921,0.000,0.500,0.000,0.500,General,0.000,1412.289
 ElectricEquipment Internal Gains Nominal, CORE_BOTTOM_ELEVATORS_EQUIP,BLDG_ELEVATORS,CORE_BOTTOM,983.54,52.9,32109.890,32.647,606.588,0.000,0.500,0.000,0.500,Elevators,0.000,22155.824
! <Construction CTF>,Construction Name,Index,#Layers,#CTFs,Time Step {hours},ThermalConductance {w/m2-K},OuterThermalAbsorptance,InnerThermalAbsorptance,OuterSolarAbsorptance,InnerSolarAbsorptance,Roughness
! <Material CTF Summary>,Material Name,Thickness {m},Conductivity {w/m-K},Density {kg/m3},Specific Heat {J/kg-K},ThermalResistance {m2-K/w}
! <Material:Air>,Material Name,ThermalResistance {m2-K/w}
! <CTF>,Time,Outside,Cross,Inside,Flux (except final one)
 Construction CTF,STEEL FRAME NON-RES EXT WALL,   1,   3,   9,   0.167,     0.5136    ,   0.900,   0.900,   0.780,   0.920,MediumSmooth
 Material CTF Summary,WOOD SIDING,  0.0100,         0.110,    544.620,     1210.000,  0.9091E-01
 Material CTF Summary,STEEL FRAME NONRES WALL INSULATION,  0.0871,         0.049,    265.000,      836.800,   1.777    
 Material CTF Summary,1/2IN GYPSUM,  0.0127,         0.160,    784.900,      830.000,  0.7937E-01
 CTF,   9,     -0.97752322E-10,     -0.18419235E-14,     -0.81924647E-10,      0.16523808E-15
 CTF,   8,      0.74055869E-04,      0.23841822E-11,      0.89212489E-04,     -0.61828613E-10
 CTF,   7,     -0.51923493E-02,      0.32154179E-07,     -0.60876796E-02,      0.35356738E-04
 CTF,   6,      0.12150771    ,      0.83215585E-05,      0.14294700    ,     -0.14502264E-02
 CTF,   5,      -1.3399792    ,      0.28786283E-03,      -1.5915719    ,      0.23553634E-01
 CTF,   4,       7.7820205    ,      0.23090270E-02,       9.3164659    ,     -0.19354862    
 CTF,   3,      -24.578922    ,      0.49884264E-02,      -29.533714    ,      0.85572422    
 CTF,   2,       41.674879    ,      0.27346815E-02,       50.062079    ,      -2.0085446    
 CTF,   1,      -35.260140    ,      0.26809585E-03,      -42.233259    ,       2.3035974    
 CTF,   0,       11.616350    ,      0.10645149E-05,       13.853649    
 Construction CTF,IEAD NON-RES ROOF,   2,   3,   9,   0.167,     0.3762    ,   0.900,   0.900,   0.700,   0.700,VeryRough
 Material CTF Summary,ROOF MEMBRANE,  0.0095,         0.160,   1121.290,     1460.000,  0.5938E-01
 Material CTF Summary,IEAD NONRES ROOF INSULATION,  0.1273,         0.049,    265.000,      836.800,   2.599    
 Material CTF Summary,METAL DECKING,  0.0015,        45.006,   7680.000,      418.400,  0.3333E-04
 CTF,   9,     -0.73923653E-07,     -0.21620315E-10,     -0.69949434E-06,     -0.16225544E-16
 CTF,   8,      0.89750309E-02,     -0.25106809E-10,      0.22785492E-01,     -0.61394285E-07
 CTF,   7,     -0.31776690    ,      0.90295884E-08,     -0.47457739    ,      0.19997781E-02
 CTF,   6,       3.7652717    ,      0.17662816E-05,       4.1458402    ,     -0.39052418E-01
 CTF,   5,      -21.941967    ,      0.42714208E-04,      -19.787423    ,      0.31358733    
 CTF,   4,       71.692355    ,      0.24001406E-03,       56.338135    ,      -1.3372295    
 CTF,   3,      -137.28453    ,      0.37548941E-03,      -97.924094    ,       3.2607493    
 CTF,   2,       152.44070    ,      0.15630135E-03,       101.53523    ,      -4.5379569    
 CTF,   1,      -90.630944    ,      0.12579797E-04,      -57.517609    ,       3.3356991    
 CTF,   0,       22.268744    ,      0.32654914E-07,       13.662541    
 Construction CTF,EXT-SLAB,   3,   2,   7,   0.167,      3.401    ,   0.900,   0.900,   0.700,   0.700,Rough
 Material CTF Summary,HW CONCRETE,  0.1016,         1.311,   2240.000,      836.800,  0.7750E-01
 Material CTF Summary,CP02 CARPET PAD,  0.0000,         0.000,      0.000,        0.000,  0.2165    
 CTF,   7,     -0.12993988E-14,     -0.86957422E-15,     -0.18259588E-12,      0.42962836E-16
 CTF,   6,      0.95648173E-05,      0.67403528E-08,      0.39672115E-06,     -0.52565161E-07
 CTF,   5,     -0.43398581E-02,      0.13231875E-04,     -0.15810680E-03,      0.25331368E-04
 CTF,   4,      0.45486386    ,      0.17387783E-02,      0.16111305E-01,     -0.30058479E-02
 CTF,   3,      -10.642115    ,      0.31345892E-01,     -0.43088243    ,      0.87601945E-01
 CTF,   2,       59.946610    ,      0.96585719E-01,       3.1129731    ,     -0.66319225    
 CTF,   1,      -103.91092    ,      0.48052750E-01,      -6.9248345    ,       1.5257717    
 CTF,   0,       54.335484    ,      0.18545935E-02,       4.4063801    
 Construction CTF,INT-WALLS,   4,   2,   4,   0.167,      6.299    ,   0.900,   0.900,   0.920,   0.920,Smooth
 Material CTF Summary,1/2IN GYPSUM,  0.0127,         0.160,    784.900,      830.000,  0.7937E-01
 Material CTF Summary,1/2IN GYPSUM,  0.0127,         0.160,    784.900,      830.000,  0.7937E-01
 CTF,   4,      0.42341677E-12,      0.14393624E-12,      0.42341671E-12,     -0.35783939E-15
 CTF,   3,     -0.36456661E-04,      0.12333878E-04,     -0.36456661E-04,      0.55373633E-12
 CTF,   2,      0.34836671    ,      0.12194966    ,      0.34836671    ,     -0.23789644E-04
 CTF,   1,      -9.4453707    ,       3.2905023    ,      -9.4453707    ,      0.10925271    
 CTF,   0,       14.708197    ,       2.1986921    ,       14.708197    
 Construction CTF,INT-FLOOR-TOPSIDE,   5,   2,   7,   0.167,      3.401    ,   0.900,   0.900,   0.700,   0.700,Rough
 Material CTF Summary,MAT-CC05 4 HW CONCRETE,  0.1016,         1.311,   2240.000,      836.800,  0.7750E-01
 Material CTF Summary,CP02 CARPET PAD,  0.0000,         0.000,      0.000,        0.000,  0.2165    
 CTF,   7,     -0.12993988E-14,     -0.86957422E-15,     -0.18259588E-12,      0.42962836E-16
 CTF,   6,      0.95648173E-05,      0.67403528E-08,      0.39672115E-06,     -0.52565161E-07
 CTF,   5,     -0.43398581E-02,      0.13231875E-04,     -0.15810680E-03,      0.25331368E-04
 CTF,   4,      0.45486386    ,      0.17387783E-02,      0.16111305E-01,     -0.30058479E-02
 CTF,   3,      -10.642115    ,      0.31345892E-01,     -0.43088243    ,      0.87601945E-01
 CTF,   2,       59.946610    ,      0.96585719E-01,       3.1129731    ,     -0.66319225    
 CTF,   1,      -103.91092    ,      0.48052750E-01,      -6.9248345    ,       1.5257717    
 CTF,   0,       54.335484    ,      0.18545935E-02,       4.4063801    
 Construction CTF,INT-FLOOR-UNDERSIDE,   6,   2,   7,   0.167,      3.401    ,   0.900,   0.900,   0.700,   0.700,VeryRough
 Material CTF Summary,CP02 CARPET PAD,  0.0000,         0.000,      0.000,        0.000,  0.2165    
 Material CTF Summary,MAT-CC05 4 HW CONCRETE,  0.1016,         1.311,   2240.000,      836.800,  0.7750E-01
 CTF,   7,     -0.18259588E-12,     -0.86957422E-15,     -0.12993988E-14,      0.42962836E-16
 CTF,   6,      0.39672115E-06,      0.67403528E-08,      0.95648173E-05,     -0.52565161E-07
 CTF,   5,     -0.15810680E-03,      0.13231875E-04,     -0.43398581E-02,      0.25331368E-04
 CTF,   4,      0.16111305E-01,      0.17387783E-02,      0.45486386    ,     -0.30058479E-02
 CTF,   3,     -0.43088243    ,      0.31345892E-01,      -10.642115    ,      0.87601945E-01
 CTF,   2,       3.1129731    ,      0.96585719E-01,       59.946610    ,     -0.66319225    
 CTF,   1,      -6.9248345    ,      0.48052750E-01,      -103.91092    ,       1.5257717    
 CTF,   0,       4.4063801    ,      0.18545935E-02,       54.335484    
 Construction CTF,DROPCEILING,   8,   1,   3,   0.167,      4.488    ,   0.900,   0.900,   0.700,   0.700,MediumSmooth
 Material CTF Summary,STD AC02,  0.0127,         0.057,    288.000,     1339.000,  0.2228    
 CTF,   3,     -0.21589802E-09,      0.15643069E-09,     -0.21589802E-09,      0.12999471E-21
 CTF,   2,      0.50772448E-02,      0.30006816E-02,      0.50772448E-02,     -0.13693132E-08
 CTF,   1,      -2.5944910    ,       1.4597758    ,      -2.5944910    ,      0.76344767E-02
 CTF,   0,       7.0433378    ,       2.9911476    ,       7.0433378    
 Construction CTF,INTERIORFURNISHINGS,   9,   1,   9,   0.167,     0.8000    ,   0.900,   0.900,   0.700,   0.700,MediumSmooth
 Material CTF Summary,STD WOOD 6INCH,  0.1500,         0.120,    540.000,     1210.000,   1.250    
 CTF,   9,     -0.27580628E-02,      0.97439125E-12,     -0.27580628E-02,      0.28516790E-03
 CTF,   8,      0.73590997E-01,      0.21837543E-08,      0.73590997E-01,     -0.77836043E-02
 CTF,   7,     -0.82599318    ,      0.23162835E-06,     -0.82599318    ,      0.89703933E-01
 CTF,   6,       5.1113916    ,      0.48671053E-05,       5.1113916    ,     -0.57224845    
 CTF,   5,      -19.214933    ,      0.30163627E-04,      -19.214933    ,       2.2266322    
 CTF,   4,       45.557404    ,      0.63181060E-04,       45.557404    ,      -5.4853312    
 CTF,   3,      -68.275533    ,      0.44785456E-04,      -68.275533    ,       8.5710568    
 CTF,   2,       62.555368    ,      0.93952058E-05,       62.555368    ,      -8.2111738    
 CTF,   1,      -31.904423    ,      0.39200004E-06,      -31.904423    ,       4.3886678    
 CTF,   0,       6.9260389    ,      0.77047546E-09,       6.9260389    
! <WindowConstruction>,Construction Name,Index,#Layers,Roughness,Conductance {W/m2-K},SHGC,Solar Transmittance at Normal Incidence,Visible Transmittance at Normal Incidence
! <WindowMaterial:Glazing>, Material Name, Optical Data Type, Spectral Data Set Name, Thickness {m}, Solar Transmittance,Front Solar Reflectance, Back Solar Reflectance, Visible Transmittance, Front Visible Reflectance,Back Visible Reflectance,Infrared Transmittance, Front Thermal Emissivity, Back Thermal Emissivity,Conductivity {W/m-K},Dirt Factor,Solar Diffusing
 WindowConstruction,WINDOW NON-RES FIXED,7,1,VerySmooth,3.241,0.391,0.305,0.305
 WindowMaterial:Glazing,NONRES FIXED ASSEMBLY WINDOW,SpectralAverage,,2.00000E-003,0.30403,0.46624,0.46624,0.30403,0.46624,0.46624,0.00000,0.84000,0.84000,1.43749E-002,1.00000,No
! <Shadowing/Sun Position Calculations Annual Simulations>, Shading Calculation Method, Shading Calculation Update Frequency Method, Shading Calculation Update Frequency {days}, Maximum Figures in Shadow Overlap Calculations {}, Polygon Clipping Algorithm, Pixel Counting Resolution, Sky Diffuse Modeling Algorithm, Output External Shading Calculation Results, Disable Self-Shading Within Shading Zone Groups, Disable Self-Shading From Shading Zone Groups to Other Zones
Shadowing/Sun Position Calculations Annual Simulations,PolygonClipping,Periodic,7,15000,SutherlandHodgman,512,SimpleSkyDiffuseModeling,No,No,No
! <Water Heater Information>,Type,Name,Volume {m3},Maximum Capacity {W},Standard Rated Recovery Efficiency, Standard Rated Energy Factor
! <Surface Convection Parameters>, Surface Name, Outside Model Assignment, Outside Area [m2], Outside Perimeter [m], Outside Height [m], Inside Model Assignment, Inside Height [m], Inside Perimeter Envelope [m], Inside Hydraulic Diameter [m], Window Wall Ratio, Window Location, Near Radiant {Yes/No}, Has Active HVAC {Yes/No}
Surface Convection Parameters,CORE_BOT_ZN_5_WALL_EAST,0,0.00,0.00,0.00,0,2.74,0.00,30.31,-999.00,0,No,No
Surface Convection Parameters,CORE_BOT_ZN_5_WALL_NORTH,0,0.00,0.00,0.00,0,2.74,0.00,30.31,-999.00,0,No,No
Surface Convection Parameters,CORE_BOT_ZN_5_WALL_SOUTH,0,0.00,0.00,0.00,0,2.74,0.00,30.31,-999.00,0,No,No
Surface Convection Parameters,CORE_BOT_ZN_5_WALL_WEST,0,0.00,0.00,0.00,0,2.74,0.00,30.31,-999.00,0,No,No
Surface Convection Parameters,CORE_BOT_ZN_5_FLOOR,0,0.00,0.00,0.00,0,2.74,0.00,30.31,-999.00,0,No,No
Surface Convection Parameters,CORE_BOTTOM_CEILING,0,0.00,0.00,0.00,0,2.74,0.00,30.31,-999.00,0,No,No
Surface Convection Parameters,CORE_BOTTOM INTERNAL MASS,0,0.00,0.00,0.00,0,2.74,0.00,30.31,-999.00,0,No,No
Surface Convection Parameters,CORE_MID_ZN_5_WALL_EAST,0,0.00,0.00,0.00,0,2.74,0.00,30.31,-999.00,0,No,No
Surface Convection Parameters,CORE_MID_ZN_5_WALL_NORTH,0,0.00,0.00,0.00,0,2.74,0.00,30.31,-999.00,0,No,No
Surface Convection Parameters,CORE_MID_ZN_5_WALL_SOUTH,0,0.00,0.00,0.00,0,2.74,0.00,30.31,-999.00,0,No,No
Surface Convection Parameters,CORE_MID_ZN_5_WALL_WEST,0,0.00,0.00,0.00,0,2.74,0.00,30.31,-999.00,0,No,No
Surface Convection Parameters,CORE_MID_ZN_5_FLOOR,0,0.00,0.00,0.00,0,2.74,0.00,30.31,-999.00,0,No,No
Surface Convection Parameters,CORE_MID_CEILING,0,0.00,0.00,0.00,0,2.74,0.00,30.31,-999.00,0,No,No
Surface Convection Parameters,CORE_MID INTERNAL MASS,0,0.00,0.00,0.00,0,2.74,0.00,30.31,-999.00,0,No,No
Surface Convection Parameters,CORE_TOP_ZN_5_WALL_EAST,0,0.00,0.00,0.00,0,2.74,0.00,30.31,-999.00,0,No,No
Surface Convection Parameters,CORE_TOP_ZN_5_WALL_NORTH,0,0.00,0.00,0.00,0,2.74,0.00,30.31,-999.00,0,No,No
Surface Convection Parameters,CORE_TOP_ZN_5_WALL_SOUTH,0,0.00,0.00,0.00,0,2.74,0.00,30.31,-999.00,0,No,No
Surface Convection Parameters,CORE_TOP_ZN_5_WALL_WEST,0,0.00,0.00,0.00,0,2.74,0.00,30.31,-999.00,0,No,No
Surface Convection Parameters,CORE_TOP_ZN_5_FLOOR,0,0.00,0.00,0.00,0,2.74,0.00,30.31,-999.00,0,No,No
Surface Convection Parameters,CORE_TOP_ZN_5_CEILING,0,0.00,0.00,0.00,0,2.74,0.00,30.31,-999.00,0,No,No
Surface Convection Parameters,CORE_TOP INTERNAL MASS,0,0.00,0.00,0.00,0,2.74,0.00,30.31,-999.00,0,No,No
Surface Convection Parameters,PERIMETER_BOT_PLENUM_WALL_EAST,0,395.53,143.75,11.89,0,1.22,166.37,39.93,0.00,0,No,No
Surface Convection Parameters,PERIMETER_BOT_PLENUM_WALL_NORTH,0,593.30,143.75,11.89,0,1.22,166.37,39.93,0.00,0,No,No
Surface Convection Parameters,PERIMETER_BOT_PLENUM_WALL_SOUTH,0,593.30,123.60,11.89,0,1.22,166.37,39.93,0.00,0,No,No
Surface Convection Parameters,PERIMETER_BOT_PLENUM_WALL_WEST,0,395.53,90.32,11.89,0,1.22,166.37,39.93,0.00,0,No,No
Surface Convection Parameters,FIRSTFLOOR_PLENUM_FLOOR_1,0,0.00,0.00,0.00,0,1.22,166.37,39.93,0.00,0,No,No
Surface Convection Parameters,FIRSTFLOOR_PLENUM_FLOOR_2,0,0.00,0.00,0.00,0,1.22,166.37,39.93,0.00,0,No,No
Surface Convection Parameters,FIRSTFLOOR_PLENUM_FLOOR_3,0,0.00,0.00,0.00,0,1.22,166.37,39.93,0.00,0,No,No
Surface Convection Parameters,FIRSTFLOOR_PLENUM_FLOOR_4,0,0.00,0.00,0.00,0,1.22,166.37,39.93,0.00,0,No,No
Surface Convection Parameters,FIRSTFLOOR_PLENUM_FLOOR_5,0,0.00,0.00,0.00,0,1.22,166.37,39.93,0.00,0,No,No
Surface Convection Parameters,FIRSTFLOOR_PLENUM_CEILING_1,0,0.00,0.00,0.00,0,1.22,166.37,39.93,0.00,0,No,No
Surface Convection Parameters,FIRSTFLOOR_PLENUM_CEILING_2,0,0.00,0.00,0.00,0,1.22,166.37,39.93,0.00,0,No,No
Surface Convection Parameters,FIRSTFLOOR_PLENUM_CEILING_3,0,0.00,0.00,0.00,0,1.22,166.37,39.93,0.00,0,No,No
Surface Convection Parameters,FIRSTFLOOR_PLENUM_CEILING_4,0,0.00,0.00,0.00,0,1.22,166.37,39.93,0.00,0,No,No
Surface Convection Parameters,FIRSTFLOOR_PLENUM_CEILING_5,0,0.00,0.00,0.00,0,1.22,166.37,39.93,0.00,0,No,No
Surface Convection Parameters,PERIMETER_MID_PLENUM_WALL_EAST,0,395.53,143.75,11.89,0,1.22,166.37,39.93,0.00,0,No,No
Surface Convection Parameters,PERIMETER_MID_PLENUM_WALL_NORTH,0,593.30,143.75,11.89,0,1.22,166.37,39.93,0.00,0,No,No
Surface Convection Parameters,PERIMETER_MID_PLENUM_WALL_SOUTH,0,593.30,123.60,11.89,0,1.22,166.37,39.93,0.00,0,No,No
Surface Convection Parameters,PERIMETER_MID_PLENUM_WALL_WEST,0,395.53,90.32,11.89,0,1.22,166.37,39.93,0.00,0,No,No
Surface Convection Parameters,MIDFLOOR_PLENUM_FLOOR_1,0,0.00,0.00,0.00,0,1.22,166.37,39.93,0.00,0,No,No
Surface Convection Parameters,MIDFLOOR_PLENUM_FLOOR_2,0,0.00,0.00,0.00,0,1.22,166.37,39.93,0.00,0,No,No
Surface Convection Parameters,MIDFLOOR_PLENUM_FLOOR_3,0,0.00,0.00,0.00,0,1.22,166.37,39.93,0.00,0,No,No
Surface Convection Parameters,MIDFLOOR_PLENUM_FLOOR_4,0,0.00,0.00,0.00,0,1.22,166.37,39.93,0.00,0,No,No
Surface Convection Parameters,MIDFLOOR_PLENUM_FLOOR_5,0,0.00,0.00,0.00,0,1.22,166.37,39.93,0.00,0,No,No
Surface Convection Parameters,MIDFLOOR_PLENUM_CEILING_1,0,0.00,0.00,0.00,0,1.22,166.37,39.93,0.00,0,No,No
Surface Convection Parameters,MIDFLOOR_PLENUM_CEILING_2,0,0.00,0.00,0.00,0,1.22,166.37,39.93,0.00,0,No,No
Surface Convection Parameters,MIDFLOOR_PLENUM_CEILING_3,0,0.00,0.00,0.00,0,1.22,166.37,39.93,0.00,0,No,No
Surface Convection Parameters,MIDFLOOR_PLENUM_CEILING_4,0,0.00,0.00,0.00,0,1.22,166.37,39.93,0.00,0,No,No
Surface Convection Parameters,MIDFLOOR_PLENUM_CEILING_5,0,0.00,0.00,0.00,0,1.22,166.37,39.93,0.00,0,No,No
Surface Convection Parameters,PERIMETER_BOT_ZN_1_WALL_EAST,0,0.00,0.00,0.00,0,2.74,49.91,7.61,0.48,0,No,No
Surface Convection Parameters,PERIMETER_BOT_ZN_1_WALL_NORTH,0,0.00,0.00,0.00,0,2.74,49.91,7.61,0.48,0,No,No
Surface Convection Parameters,PERIMETER_BOT_ZN_1_WALL_SOUTH,0,593.30,123.60,11.89,0,2.74,49.91,7.61,0.48,3,No,No
Surface Convection Parameters,PERIMETER_BOT_ZN_1_WALL_SOUTH_WINDOW,0,593.30,123.60,11.89,0,2.74,49.91,7.61,0.48,2,No,No
Surface Convection Parameters,PERIMETER_BOT_ZN_1_WALL_WEST,0,0.00,0.00,0.00,0,2.74,49.91,7.61,0.48,0,No,No
Surface Convection Parameters,PERIMETER_BOT_ZN_1_FLOOR,0,0.00,0.00,0.00,0,2.74,49.91,7.61,0.48,0,No,No
Surface Convection Parameters,PERIMETER_BOT_ZN_1_CEILING,0,0.00,0.00,0.00,0,2.74,49.91,7.61,0.48,0,No,No
Surface Convection Parameters,PERIMETER_BOT_ZN_1 INTERNAL MASS,0,0.00,0.00,0.00,0,2.74,49.91,7.61,0.48,0,No,No
Surface Convection Parameters,PERIMETER_BOT_ZN_2_WALL_EAST,0,395.53,143.75,11.89,0,2.74,33.27,6.94,0.48,3,No,No
Surface Convection Parameters,PERIMETER_BOT_ZN_2_WALL_EAST_WINDOW,0,395.53,143.75,11.89,0,2.74,33.27,6.94,0.48,2,No,No
Surface Convection Parameters,PERIMETER_BOT_ZN_2_WALL_NORTH,0,0.00,0.00,0.00,0,2.74,33.27,6.94,0.48,0,No,No
Surface Convection Parameters,PERIMETER_BOT_ZN_2_WALL_SOUTH,0,0.00,0.00,0.00,0,2.74,33.27,6.94,0.48,0,No,No
Surface Convection Parameters,PERIMETER_BOT_ZN_2_WALL_WEST,0,0.00,0.00,0.00,0,2.74,33.27,6.94,0.48,0,No,No
Surface Convection Parameters,PERIMETER_BOT_ZN_2_FLOOR,0,0.00,0.00,0.00,0,2.74,33.27,6.94,0.48,0,No,No
Surface Convection Parameters,PERIMETER_BOT_ZN_2_CEILING,0,0.00,0.00,0.00,0,2.74,33.27,6.94,0.48,0,No,No
Surface Convection Parameters,PERIMETER_BOT_ZN_2 INTERNAL MASS,0,0.00,0.00,0.00,0,2.74,33.27,6.94,0.48,0,No,No
Surface Convection Parameters,PERIMETER_BOT_ZN_3_WALL_EAST,0,0.00,0.00,0.00,0,2.74,49.91,7.61,0.48,0,No,No
Surface Convection Parameters,PERIMETER_BOT_ZN_3_WALL_NORTH,0,593.30,143.75,11.89,0,2.74,49.91,7.61,0.48,3,No,No
Surface Convection Parameters,PERIMETER_BOT_ZN_3_WALL_NORTH_WINDOW,0,593.30,143.75,11.89,0,2.74,49.91,7.61,0.48,2,No,No
Surface Convection Parameters,PERIMETER_BOT_ZN_3_WALL_SOUTH,0,0.00,0.00,0.00,0,2.74,49.91,7.61,0.48,0,No,No
Surface Convection Parameters,PERIMETER_BOT_ZN_3_WALL_WEST,0,0.00,0.00,0.00,0,2.74,49.91,7.61,0.48,0,No,No
Surface Convection Parameters,PERIMETER_BOT_ZN_3_FLOOR,0,0.00,0.00,0.00,0,2.74,49.91,7.61,0.48,0,No,No
Surface Convection Parameters,PERIMETER_BOT_ZN_3_CEILILNG,0,0.00,0.00,0.00,0,2.74,49.91,7.61,0.48,0,No,No
Surface Convection Parameters,PERIMETER_BOT_ZN_3 INTERNAL MASS,0,0.00,0.00,0.00,0,2.74,49.91,7.61,0.48,0,No,No
Surface Convection Parameters,PERIMETER_BOT_ZN_4_WALL_EAST,0,0.00,0.00,0.00,0,2.74,33.27,6.94,0.48,0,No,No
Surface Convection Parameters,PERIMETER_BOT_ZN_4_WALL_NORTH,0,0.00,0.00,0.00,0,2.74,33.27,6.94,0.48,0,No,No
Surface Convection Parameters,PERIMETER_BOT_ZN_4_WALL_SOUTH,0,0.00,0.00,0.00,0,2.74,33.27,6.94,0.48,0,No,No
Surface Convection Parameters,PERIMETER_BOT_ZN_4_WALL_WEST,0,395.53,90.32,11.89,0,2.74,33.27,6.94,0.48,3,No,No
Surface Convection Parameters,PERIMETER_BOT_ZN_4_WALL_WEST_WINDOW,0,395.53,90.32,11.89,0,2.74,33.27,6.94,0.48,2,No,No
Surface Convection Parameters,PERIMETER_BOT_ZN_4_FLOOR,0,0.00,0.00,0.00,0,2.74,33.27,6.94,0.48,0,No,No
Surface Convection Parameters,PERIMETER_BOT_ZN_4_CEILING,0,0.00,0.00,0.00,0,2.74,33.27,6.94,0.48,0,No,No
Surface Convection Parameters,PERIMETER_BOT_ZN_4 INTERNAL MASS,0,0.00,0.00,0.00,0,2.74,33.27,6.94,0.48,0,No,No
Surface Convection Parameters,PERIMETER_MID_ZN_1_WALL_EAST,0,0.00,0.00,0.00,0,2.74,49.91,7.61,0.48,0,No,No
Surface Convection Parameters,PERIMETER_MID_ZN_1_WALL_NORTH,0,0.00,0.00,0.00,0,2.74,49.91,7.61,0.48,0,No,No
Surface Convection Parameters,PERIMETER_MID_ZN_1_WALL_SOUTH,0,593.30,123.60,11.89,0,2.74,49.91,7.61,0.48,3,No,No
Surface Convection Parameters,PERIMETER_MID_ZN_1_WALL_SOUTH_WINDOW,0,593.30,123.60,11.89,0,2.74,49.91,7.61,0.48,2,No,No
Surface Convection Parameters,PERIMETER_MID_ZN_1_WALL_WEST,0,0.00,0.00,0.00,0,2.74,49.91,7.61,0.48,0,No,No
Surface Convection Parameters,PERIMETER_MID_ZN_1_FLOOR,0,0.00,0.00,0.00,0,2.74,49.91,7.61,0.48,0,No,No
Surface Convection Parameters,PERIMETER_MID_ZN_1_CEILING,0,0.00,0.00,0.00,0,2.74,49.91,7.61,0.48,0,No,No
Surface Convection Parameters,PERIMETER_MID_ZN_1 INTERNAL MASS,0,0.00,0.00,0.00,0,2.74,49.91,7.61,0.48,0,No,No
Surface Convection Parameters,PERIMETER_MID_ZN_2_WALL_EAST,0,395.53,143.75,11.89,0,2.74,33.27,6.94,0.48,3,No,No
Surface Convection Parameters,PERIMETER_MID_ZN_2_WALL_EAST_WINDOW,0,395.53,143.75,11.89,0,2.74,33.27,6.94,0.48,2,No,No
Surface Convection Parameters,PERIMETER_MID_ZN_2_WALL_NORTH,0,0.00,0.00,0.00,0,2.74,33.27,6.94,0.48,0,No,No
Surface Convection Parameters,PERIMETER_MID_ZN_2_WALL_SOUTH,0,0.00,0.00,0.00,0,2.74,33.27,6.94,0.48,0,No,No
Surface Convection Parameters,PERIMETER_MID_ZN_2_WALL_WEST,0,0.00,0.00,0.00,0,2.74,33.27,6.94,0.48,0,No,No
Surface Convection Parameters,PERIMETER_MID_ZN_2_FLOOR,0,0.00,0.00,0.00,0,2.74,33.27,6.94,0.48,0,No,No
Surface Convection Parameters,PERIMETER_MID_ZN_2_CEILING,0,0.00,0.00,0.00,0,2.74,33.27,6.94,0.48,0,No,No
Surface Convection Parameters,PERIMETER_MID_ZN_2 INTERNAL MASS,0,0.00,0.00,0.00,0,2.74,33.27,6.94,0.48,0,No,No
Surface Convection Parameters,PERIMETER_MID_ZN_3_WALL_EAST,0,0.00,0.00,0.00,0,2.74,49.91,7.61,0.48,0,No,No
Surface Convection Parameters,PERIMETER_MID_ZN_3_WALL_NORTH,0,593.30,143.75,11.89,0,2.74,49.91,7.61,0.48,3,No,No
Surface Convection Parameters,PERIMETER_MID_ZN_3_WALL_NORTH_WINDOW,0,593.30,143.75,11.89,0,2.74,49.91,7.61,0.48,2,No,No
Surface Convection Parameters,PERIMETER_MID_ZN_3_WALL_SOUTH,0,0.00,0.00,0.00,0,2.74,49.91,7.61,0.48,0,No,No
Surface Convection Parameters,PERIMETER_MID_ZN_3_WALL_WEST,0,0.00,0.00,0.00,0,2.74,49.91,7.61,0.48,0,No,No
Surface Convection Parameters,PERIMETER_MID_ZN_3_FLOOR,0,0.00,0.00,0.00,0,2.74,49.91,7.61,0.48,0,No,No
Surface Convection Parameters,PERIMETER_MID_ZN_3_CEILING,0,0.00,0.00,0.00,0,2.74,49.91,7.61,0.48,0,No,No
Surface Convection Parameters,PERIMETER_MID_ZN_3 INTERNAL MASS,0,0.00,0.00,0.00,0,2.74,49.91,7.61,0.48,0,No,No
Surface Convection Parameters,PERIMETER_MID_ZN_4_WALL_EAST,0,0.00,0.00,0.00,0,2.74,33.27,6.94,0.48,0,No,No
Surface Convection Parameters,PERIMETER_MID_ZN_4_WALL_NORTH,0,0.00,0.00,0.00,0,2.74,33.27,6.94,0.48,0,No,No
Surface Convection Parameters,PERIMETER_MID_ZN_4_WALL_SOUTH,0,0.00,0.00,0.00,0,2.74,33.27,6.94,0.48,0,No,No
Surface Convection Parameters,PERIMETER_MID_ZN_4_WALL_WEST,0,395.53,90.32,11.89,0,2.74,33.27,6.94,0.48,3,No,No
Surface Convection Parameters,PERIMETER_MID_ZN_4_WALL_WEST_WINDOW,0,395.53,90.32,11.89,0,2.74,33.27,6.94,0.48,2,No,No
Surface Convection Parameters,PERIMETER_MID_ZN_4_FLOOR,0,0.00,0.00,0.00,0,2.74,33.27,6.94,0.48,0,No,No
Surface Convection Parameters,PERIMETER_MID_ZN_4_CEILING,0,0.00,0.00,0.00,0,2.74,33.27,6.94,0.48,0,No,No
Surface Convection Parameters,PERIMETER_MID_ZN_4 INTERNAL MASS,0,0.00,0.00,0.00,0,2.74,33.27,6.94,0.48,0,No,No
Surface Convection Parameters,PERIMETER_TOP_ZN_1_WALL_EAST,0,0.00,0.00,0.00,0,2.74,49.91,7.61,0.48,0,No,No
Surface Convection Parameters,PERIMETER_TOP_ZN_1_WALL_NORTH,0,0.00,0.00,0.00,0,2.74,49.91,7.61,0.48,0,No,No
Surface Convection Parameters,PERIMETER_TOP_ZN_1_WALL_SOUTH,0,593.30,123.60,11.89,0,2.74,49.91,7.61,0.48,3,No,No
Surface Convection Parameters,PERIMETER_TOP_ZN_1_WALL_SOUTH_WINDOW,0,593.30,123.60,11.89,0,2.74,49.91,7.61,0.48,2,No,No
Surface Convection Parameters,PERIMETER_TOP_ZN_1_WALL_WEST,0,0.00,0.00,0.00,0,2.74,49.91,7.61,0.48,0,No,No
Surface Convection Parameters,PERIMETER_TOP_ZN_1_FLOOR,0,0.00,0.00,0.00,0,2.74,49.91,7.61,0.48,0,No,No
Surface Convection Parameters,PERIMETER_TOP_ZN_1_CEILING,0,0.00,0.00,0.00,0,2.74,49.91,7.61,0.48,0,No,No
Surface Convection Parameters,PERIMETER_TOP_ZN_1 INTERNAL MASS,0,0.00,0.00,0.00,0,2.74,49.91,7.61,0.48,0,No,No
Surface Convection Parameters,PERIMETER_TOP_ZN_2_WALL_EAST,0,395.53,143.75,11.89,0,2.74,33.27,6.94,0.48,3,No,No
Surface Convection Parameters,PERIMETER_TOP_ZN_2_WALL_EAST_WINDOW,0,395.53,143.75,11.89,0,2.74,33.27,6.94,0.48,2,No,No
Surface Convection Parameters,PERIMETER_TOP_ZN_2_WALL_NORTH,0,0.00,0.00,0.00,0,2.74,33.27,6.94,0.48,0,No,No
Surface Convection Parameters,PERIMETER_TOP_ZN_2_WALL_SOUTH,0,0.00,0.00,0.00,0,2.74,33.27,6.94,0.48,0,No,No
Surface Convection Parameters,PERIMETER_TOP_ZN_2_WALL_WEST,0,0.00,0.00,0.00,0,2.74,33.27,6.94,0.48,0,No,No
Surface Convection Parameters,PERIMETER_TOP_ZN_2_FLOOR,0,0.00,0.00,0.00,0,2.74,33.27,6.94,0.48,0,No,No
Surface Convection Parameters,PERIMETER_TOP_ZN_2_CEILING,0,0.00,0.00,0.00,0,2.74,33.27,6.94,0.48,0,No,No
Surface Convection Parameters,PERIMETER_TOP_ZN_2 INTERNAL MASS,0,0.00,0.00,0.00,0,2.74,33.27,6.94,0.48,0,No,No
Surface Convection Parameters,PERIMETER_TOP_ZN_3_WALL_EAST,0,0.00,0.00,0.00,0,2.74,49.91,7.61,0.48,0,No,No
Surface Convection Parameters,PERIMETER_TOP_ZN_3_WALL_NORTH,0,593.30,143.75,11.89,0,2.74,49.91,7.61,0.48,3,No,No
Surface Convection Parameters,PERIMETER_TOP_ZN_3_WALL_NORTH_WINDOW,0,593.30,143.75,11.89,0,2.74,49.91,7.61,0.48,2,No,No
Surface Convection Parameters,PERIMETER_TOP_ZN_3_WALL_SOUTH,0,0.00,0.00,0.00,0,2.74,49.91,7.61,0.48,0,No,No
Surface Convection Parameters,PERIMETER_TOP_ZN_3_WALL_WEST,0,0.00,0.00,0.00,0,2.74,49.91,7.61,0.48,0,No,No
Surface Convection Parameters,PERIMETER_TOP_ZN_3_FLOOR,0,0.00,0.00,0.00,0,2.74,49.91,7.61,0.48,0,No,No
Surface Convection Parameters,PERIMETER_TOP_ZN_3_CEILING,0,0.00,0.00,0.00,0,2.74,49.91,7.61,0.48,0,No,No
Surface Convection Parameters,PERIMETER_TOP_ZN_3 INTERNAL MASS,0,0.00,0.00,0.00,0,2.74,49.91,7.61,0.48,0,No,No
Surface Convection Parameters,PERIMETER_TOP_ZN_4_WALL_EAST,0,0.00,0.00,0.00,0,2.74,33.27,6.94,0.48,0,No,No
Surface Convection Parameters,PERIMETER_TOP_ZN_4_WALL_NORTH,0,0.00,0.00,0.00,0,2.74,33.27,6.94,0.48,0,No,No
Surface Convection Parameters,PERIMETER_TOP_ZN_4_WALL_SOUTH,0,0.00,0.00,0.00,0,2.74,33.27,6.94,0.48,0,No,No
Surface Convection Parameters,PERIMETER_TOP_ZN_4_WALL_WEST,0,395.53,90.32,11.89,0,2.74,33.27,6.94,0.48,3,No,No
Surface Convection Parameters,PERIMETER_TOP_ZN_4_WALL_WEST_WINDOW,0,395.53,90.32,11.89,0,2.74,33.27,6.94,0.48,2,No,No
Surface Convection Parameters,PERIMETER_TOP_ZN_4_FLOOR,0,0.00,0.00,0.00,0,2.74,33.27,6.94,0.48,0,No,No
Surface Convection Parameters,PERIMETER_TOP_ZN_4_CEILING,0,0.00,0.00,0.00,0,2.74,33.27,6.94,0.48,0,No,No
Surface Convection Parameters,PERIMETER_TOP_ZN_4 INTERNAL MASS,0,0.00,0.00,0.00,0,2.74,33.27,6.94,0.48,0,No,No
Surface Convection Parameters,PERIMETER_TOP_PLENUM_WALL_EAST,0,395.53,143.75,11.89,0,1.22,166.37,39.93,0.00,0,No,No
Surface Convection Parameters,PERIMETER_TOP_PLENUM_WALL_NORTH,0,593.30,143.75,11.89,0,1.22,166.37,39.93,0.00,0,No,No
Surface Convection Parameters,PERIMETER_TOP_PLENUM_WALL_SOUTH,0,593.30,123.60,11.89,0,1.22,166.37,39.93,0.00,0,No,No
Surface Convection Parameters,PERIMETER_TOP_PLENUM_WALL_WEST,0,395.53,90.32,11.89,0,1.22,166.37,39.93,0.00,0,No,No
Surface Convection Parameters,TOPFLOOR_PLENUM_FLOOR_1,0,0.00,0.00,0.00,0,1.22,166.37,39.93,0.00,0,No,No
Surface Convection Parameters,TOPFLOOR_PLENUM_FLOOR_2,0,0.00,0.00,0.00,0,1.22,166.37,39.93,0.00,0,No,No
Surface Convection Parameters,TOPFLOOR_PLENUM_FLOOR_3,0,0.00,0.00,0.00,0,1.22,166.37,39.93,0.00,0,No,No
Surface Convection Parameters,TOPFLOOR_PLENUM_FLOOR_4,0,0.00,0.00,0.00,0,1.22,166.37,39.93,0.00,0,No,No
Surface Convection Parameters,TOPFLOOR_PLENUM_FLOOR_5,0,0.00,0.00,0.00,0,1.22,166.37,39.93,0.00,0,No,No
Surface Convection Parameters,BUILDING_ROOF,0,1660.73,183.01,0.00,0,1.22,166.37,39.93,0.00,0,No,No
! <ZoneInfiltration Airflow Stats Nominal>,Name,Schedule Name,Zone Name, Zone Floor Area {m2}, # Zone Occupants,Design Volume Flow Rate {m3/s},Volume Flow Rate/Floor Area {m3/s-m2},Volume Flow Rate/Exterior Surface Area {m3/s-m2},ACH - Air Changes per Hour,Equation A - Constant Term Coefficient {},Equation B - Temperature Term Coefficient {1/C},Equation C - Velocity Term Coefficient {s/m}, Equation D - Velocity Squared Term Coefficient {s2/m2}
 ZoneInfiltration Airflow Stats Nominal, FIRSTFLOOR_PLENUM_INFILTRATION,INFIL_QUARTER_ON_SCH,FIRSTFLOOR_PLENUM,1660.73,0.0,6.126E-002,3.689E-005,3.020E-004,0.109,1.000,0.000,0.000,0.000
 ZoneInfiltration Airflow Stats Nominal, MIDFLOOR_PLENUM_INFILTRATION,INFIL_QUARTER_ON_SCH,MIDFLOOR_PLENUM,1660.73,0.0,6.126E-002,3.689E-005,3.020E-004,0.109,1.000,0.000,0.000,0.000
 ZoneInfiltration Airflow Stats Nominal, PERIMETER_BOT_ZN_1_INFILTRATION,INFIL_QUARTER_ON_SCH,PERIMETER_BOT_ZN_1,207.34,11.2,4.135E-002,1.994E-004,3.020E-004,0.262,1.000,0.000,0.000,0.000
 ZoneInfiltration Airflow Stats Nominal, PERIMETER_BOT_ZN_2_INFILTRATION,INFIL_QUARTER_ON_SCH,PERIMETER_BOT_ZN_2,131.26,7.1,2.757E-002,2.100E-004,3.020E-004,0.276,1.000,0.000,0.000,0.000
 ZoneInfiltration Airflow Stats Nominal, PERIMETER_BOT_ZN_3_INFILTRATION,INFIL_QUARTER_ON_SCH,PERIMETER_BOT_ZN_3,207.34,11.2,4.135E-002,1.994E-004,3.020E-004,0.262,1.000,0.000,0.000,0.000
 ZoneInfiltration Airflow Stats Nominal, PERIMETER_BOT_ZN_4_INFILTRATION,INFIL_QUARTER_ON_SCH,PERIMETER_BOT_ZN_4,131.25,7.1,2.757E-002,2.100E-004,3.020E-004,0.276,1.000,0.000,0.000,0.000
 ZoneInfiltration Airflow Stats Nominal, PERIMETER_MID_ZN_1_INFILTRATION,INFIL_QUARTER_ON_SCH,PERIMETER_MID_ZN_1,207.34,11.2,4.135E-002,1.994E-004,3.020E-004,0.262,1.000,0.000,0.000,0.000
 ZoneInfiltration Airflow Stats Nominal, PERIMETER_MID_ZN_2_INFILTRATION,INFIL_QUARTER_ON_SCH,PERIMETER_MID_ZN_2,131.26,7.1,2.757E-002,2.100E-004,3.020E-004,0.276,1.000,0.000,0.000,0.000
 ZoneInfiltration Airflow Stats Nominal, PERIMETER_MID_ZN_3_INFILTRATION,INFIL_QUARTER_ON_SCH,PERIMETER_MID_ZN_3,207.34,11.2,4.135E-002,1.994E-004,3.020E-004,0.262,1.000,0.000,0.000,0.000
 ZoneInfiltration Airflow Stats Nominal, PERIMETER_MID_ZN_4_INFILTRATION,INFIL_QUARTER_ON_SCH,PERIMETER_MID_ZN_4,131.25,7.1,2.757E-002,2.100E-004,3.020E-004,0.276,1.000,0.000,0.000,0.000
 ZoneInfiltration Airflow Stats Nominal, PERIMETER_TOP_ZN_1_INFILTRATION,INFIL_QUARTER_ON_SCH,PERIMETER_TOP_ZN_1,207.34,11.2,4.135E-002,1.994E-004,3.020E-004,0.262,1.000,0.000,0.000,0.000
 ZoneInfiltration Airflow Stats Nominal, PERIMETER_TOP_ZN_2_INFILTRATION,INFIL_QUARTER_ON_SCH,PERIMETER_TOP_ZN_2,131.26,7.1,2.757E-002,2.100E-004,3.020E-004,0.276,1.000,0.000,0.000,0.000
 ZoneInfiltration Airflow Stats Nominal, PERIMETER_TOP_ZN_3_INFILTRATION,INFIL_QUARTER_ON_SCH,PERIMETER_TOP_ZN_3,207.34,11.2,4.135E-002,1.994E-004,3.020E-004,0.262,1.000,0.000,0.000,0.000
 ZoneInfiltration Airflow Stats Nominal, PERIMETER_TOP_ZN_4_INFILTRATION,INFIL_QUARTER_ON_SCH,PERIMETER_TOP_ZN_4,131.25,7.1,2.757E-002,2.100E-004,3.020E-004,0.276,1.000,0.000,0.000,0.000
 ZoneInfiltration Airflow Stats Nominal, TOPFLOOR_PLENUM_INFILTRATION,INFIL_QUARTER_ON_SCH,TOPFLOOR_PLENUM,1660.73,0.0,0.563,3.389E-004,3.020E-004,1.001,1.000,0.000,0.000,0.000
! <AirFlow Model>, Simple
 AirFlow Model, Simple
! <RoomAir Model>, Zone Name, Mixing/Mundt/UCSDDV/UCSDCV/UCSDUFI/UCSDUFE/User Defined
RoomAir Model,CORE_BOTTOM,Mixing/Well-Stirred
RoomAir Model,CORE_MID,Mixing/Well-Stirred
RoomAir Model,CORE_TOP,Mixing/Well-Stirred
RoomAir Model,FIRSTFLOOR_PLENUM,Mixing/Well-Stirred
RoomAir Model,MIDFLOOR_PLENUM,Mixing/Well-Stirred
RoomAir Model,PERIMETER_BOT_ZN_1,Mixing/Well-Stirred
RoomAir Model,PERIMETER_BOT_ZN_2,Mixing/Well-Stirred
RoomAir Model,PERIMETER_BOT_ZN_3,Mixing/Well-Stirred
RoomAir Model,PERIMETER_BOT_ZN_4,Mixing/Well-Stirred
RoomAir Model,PERIMETER_MID_ZN_1,Mixing/Well-Stirred
RoomAir Model,PERIMETER_MID_ZN_2,Mixing/Well-Stirred
RoomAir Model,PERIMETER_MID_ZN_3,Mixing/Well-Stirred
RoomAir Model,PERIMETER_MID_ZN_4,Mixing/Well-Stirred
RoomAir Model,PERIMETER_TOP_ZN_1,Mixing/Well-Stirred
RoomAir Model,PERIMETER_TOP_ZN_2,Mixing/Well-Stirred
RoomAir Model,PERIMETER_TOP_ZN_3,Mixing/Well-Stirred
RoomAir Model,PERIMETER_TOP_ZN_4,Mixing/Well-Stirred
RoomAir Model,TOPFLOOR_PLENUM,Mixing/Well-Stirred
! <AirflowNetwork Model:Control>, No Multizone or Distribution/Multizone with Distribution/Multizone without Distribution/Multizone with Distribution only during Fan Operation
AirflowNetwork Model:Control,NoMultizoneOrDistribution
! <Zone Volume Capacitance Multiplier>, Sensible Heat Capacity Multiplier, Moisture Capacity Multiplier, Carbon Dioxide Capacity Multiplier, Generic Contaminant Capacity Multiplier
Zone Volume Capacitance Multiplier,   1.000 ,   1.000,   1.000,   1.000
! <Load Timesteps in Zone Design Calculation Averaging Window>, Value
 Load Timesteps in Zone Design Calculation Averaging Window,    6
! <Heating Sizing Factor Information>, Sizing Factor ID, Value
 Heating Sizing Factor Information, Global,   1.3300    
 Heating Sizing Factor Information, Zone CORE_BOTTOM,   1.3300    
 Heating Sizing Factor Information, Zone CORE_MID,   1.3300    
 Heating Sizing Factor Information, Zone CORE_TOP,   1.3300    
 Heating Sizing Factor Information, Zone PERIMETER_BOT_ZN_1,   1.3300    
 Heating Sizing Factor Information, Zone PERIMETER_BOT_ZN_2,   1.3300    
 Heating Sizing Factor Information, Zone PERIMETER_BOT_ZN_3,   1.3300    
 Heating Sizing Factor Information, Zone PERIMETER_BOT_ZN_4,   1.3300    
 Heating Sizing Factor Information, Zone PERIMETER_MID_ZN_1,   1.3300    
 Heating Sizing Factor Information, Zone PERIMETER_MID_ZN_2,   1.3300    
 Heating Sizing Factor Information, Zone PERIMETER_MID_ZN_3,   1.3300    
 Heating Sizing Factor Information, Zone PERIMETER_MID_ZN_4,   1.3300    
 Heating Sizing Factor Information, Zone PERIMETER_TOP_ZN_1,   1.3300    
 Heating Sizing Factor Information, Zone PERIMETER_TOP_ZN_2,   1.3300    
 Heating Sizing Factor Information, Zone PERIMETER_TOP_ZN_3,   1.3300    
 Heating Sizing Factor Information, Zone PERIMETER_TOP_ZN_4,   1.3300    
! <Cooling Sizing Factor Information>, Sizing Factor ID, Value
 Cooling Sizing Factor Information, Global,   1.3300    
 Cooling Sizing Factor Information, Zone CORE_BOTTOM,   1.3300    
 Cooling Sizing Factor Information, Zone CORE_MID,   1.3300    
 Cooling Sizing Factor Information, Zone CORE_TOP,   1.3300    
 Cooling Sizing Factor Information, Zone PERIMETER_BOT_ZN_1,   1.3300    
 Cooling Sizing Factor Information, Zone PERIMETER_BOT_ZN_2,   1.3300    
 Cooling Sizing Factor Information, Zone PERIMETER_BOT_ZN_3,   1.3300    
 Cooling Sizing Factor Information, Zone PERIMETER_BOT_ZN_4,   1.3300    
 Cooling Sizing Factor Information, Zone PERIMETER_MID_ZN_1,   1.3300    
 Cooling Sizing Factor Information, Zone PERIMETER_MID_ZN_2,   1.3300    
 Cooling Sizing Factor Information, Zone PERIMETER_MID_ZN_3,   1.3300    
 Cooling Sizing Factor Information, Zone PERIMETER_MID_ZN_4,   1.3300    
 Cooling Sizing Factor Information, Zone PERIMETER_TOP_ZN_1,   1.3300    
 Cooling Sizing Factor Information, Zone PERIMETER_TOP_ZN_2,   1.3300    
 Cooling Sizing Factor Information, Zone PERIMETER_TOP_ZN_3,   1.3300    
 Cooling Sizing Factor Information, Zone PERIMETER_TOP_ZN_4,   1.3300    
! <Zone Sizing Information>, Zone Name, Load Type, Calc Des Load {W}, User Des Load {W}, Calc Des Air Flow Rate {m3/s}, User Des Air Flow Rate {m3/s}, Design Day Name, Date/Time of Peak, Temperature at Peak {C}, Humidity Ratio at Peak {kgWater/kgDryAir}, Floor Area {m2}, # Occupants, Calc Outdoor Air Flow Rate {m3/s}, Calc DOAS Heat Addition Rate {W}
 Zone Sizing Information, CORE_BOTTOM, Cooling, 32780.79403, 43598.45606, 2.43930, 3.24427, CHICAGO ANN CLG .4% CONDNS WB=>MDB, 7/21 09:00:00, 25.31500, 1.87863E-002, 983.53657, 52.93523, 0.66169, 0.00000
 Zone Sizing Information, CORE_BOTTOM, Heating, 6239.27768, 8298.23931, 0.17943, 0.66169, CHICAGO ANN HTG 99.6% CONDNS DB, 1/21 06:10:00, -20.60000, 6.12575E-004, 983.53657, 52.93523, 0.66169, 0.00000
 Zone Sizing Information, CORE_MID, Cooling, 32586.62220, 43340.20753, 2.37823, 3.16304, CHICAGO ANN CLG .4% CONDNS WB=>MDB, 7/21 07:00:00, 21.46300, 1.64954E-002, 983.53657, 52.93523, 0.66169, 0.00000
 Zone Sizing Information, CORE_MID, Heating, 8324.73612, 11071.89904, 0.23940, 0.66169, CHICAGO ANN HTG 99.6% CONDNS DB, 1/21 06:10:00, -20.60000, 6.12575E-004, 983.53657, 52.93523, 0.66169, 0.00000
 Zone Sizing Information, CORE_TOP, Cooling, 32008.82795, 42571.74118, 2.33557, 3.10631, CHICAGO ANN CLG .4% CONDNS WB=>MDB, 7/21 07:00:00, 21.46300, 1.64954E-002, 983.53657, 52.93523, 0.66169, 0.00000
 Zone Sizing Information, CORE_TOP, Heating, 27258.32622, 36253.57387, 0.78390, 1.04258, CHICAGO ANN HTG 99.6% CONDNS DB, 1/21 06:10:00, -20.60000, 6.12575E-004, 983.53657, 52.93523, 0.66169, 0.00000
 Zone Sizing Information, PERIMETER_BOT_ZN_1, Cooling, 9877.90945, 13137.61957, 0.73505, 0.97762, CHICAGO ANN CLG .4% CONDNS WB=>MDB, 7/21 13:10:00, 30.75417, 1.87969E-002, 207.33814, 11.15921, 0.13949, 0.00000
 Zone Sizing Information, PERIMETER_BOT_ZN_1, Heating, 9858.46724, 13111.76144, 0.28343, 0.37697, CHICAGO ANN HTG 99.6% CONDNS DB, 1/21 06:00:00, -20.60000, 6.12575E-004, 207.33814, 11.15921, 0.13949, 0.00000
 Zone Sizing Information, PERIMETER_BOT_ZN_2, Cooling, 9448.65614, 12566.71266, 0.70310, 0.93512, CHICAGO ANN CLG .4% CONDNS WB=>MDB, 7/21 08:40:00, 24.63733, 1.87850E-002, 131.26219, 7.06470, 8.83088E-002, 0.00000
 Zone Sizing Information, PERIMETER_BOT_ZN_2, Heating, 6546.17271, 8706.40971, 0.18820, 0.25031, CHICAGO ANN HTG 99.6% CONDNS DB, 1/21 06:00:00, -20.60000, 6.12575E-004, 131.26219, 7.06470, 8.83088E-002, 0.00000
 Zone Sizing Information, PERIMETER_BOT_ZN_3, Cooling, 6226.31357, 8280.99705, 0.46334, 0.61624, CHICAGO ANN CLG .4% CONDNS WB=>MDB, 7/21 18:20:00, 28.09700, 1.87917E-002, 207.33814, 11.15921, 0.13949, 0.00000
 Zone Sizing Information, PERIMETER_BOT_ZN_3, Heating, 9712.34919, 12917.42443, 0.27923, 0.37138, CHICAGO ANN HTG 99.6% CONDNS DB, 1/21 06:00:00, -20.60000, 6.12575E-004, 207.33814, 11.15921, 0.13949, 0.00000
 Zone Sizing Information, PERIMETER_BOT_ZN_4, Cooling, 10390.66797, 13819.58840, 0.77319, 1.02835, CHICAGO ANN CLG .4% CONDNS WB=>MDB, 7/21 17:00:00, 29.70200, 1.87949E-002, 131.25358, 7.06424, 8.83030E-002, 0.00000
 Zone Sizing Information, PERIMETER_BOT_ZN_4, Heating, 6535.69265, 8692.47122, 0.18790, 0.24991, CHICAGO ANN HTG 99.6% CONDNS DB, 1/21 06:00:00, -20.60000, 6.12575E-004, 131.25358, 7.06424, 8.83030E-002, 0.00000
 Zone Sizing Information, PERIMETER_MID_ZN_1, Cooling, 11812.05459, 15710.03261, 0.87897, 1.16903, CHICAGO ANN CLG .4% CONDNS WB=>MDB, 7/21 13:10:00, 30.75417, 1.87969E-002, 207.33814, 11.15921, 0.13949, 0.00000
 Zone Sizing Information, PERIMETER_MID_ZN_1, Heating, 10664.62194, 14183.94719, 0.30661, 0.40779, CHICAGO ANN HTG 99.6% CONDNS DB, 1/21 06:00:00, -20.60000, 6.12575E-004, 207.33814, 11.15921, 0.13949, 0.00000
 Zone Sizing Information, PERIMETER_MID_ZN_2, Cooling, 10877.34673, 14466.87115, 0.80940, 1.07650, CHICAGO ANN CLG .4% CONDNS WB=>MDB, 7/21 08:40:00, 24.63733, 1.87850E-002, 131.26219, 7.06470, 8.83088E-002, 0.00000
 Zone Sizing Information, PERIMETER_MID_ZN_2, Heating, 7030.49128, 9350.55340, 0.20213, 0.26883, CHICAGO ANN HTG 99.6% CONDNS DB, 1/21 06:00:00, -20.60000, 6.12575E-004, 131.26219, 7.06470, 8.83088E-002, 0.00000
 Zone Sizing Information, PERIMETER_MID_ZN_3, Cooling, 8122.31966, 10802.68514, 0.59424, 0.79033, CHICAGO ANN CLG .4% CONDNS WB=>MDB, 7/21 07:00:00, 21.46300, 1.64954E-002, 207.33814, 11.15921, 0.13949, 0.00000
 Zone Sizing Information, PERIMETER_MID_ZN_3, Heating, 10539.09751, 14016.99969, 0.30300, 0.40299, CHICAGO ANN HTG 99.6% CONDNS DB, 1/21 06:00:00, -20.60000, 6.12575E-004, 207.33814, 11.15921, 0.13949, 0.00000
 Zone Sizing Information, PERIMETER_MID_ZN_4, Cooling, 11672.82905, 15524.86264, 0.86860, 1.15523, CHICAGO ANN CLG .4% CONDNS WB=>MDB, 7/21 17:00:00, 29.70200, 1.87949E-002, 131.25358, 7.06424, 8.83030E-002, 0.00000
 Zone Sizing Information, PERIMETER_MID_ZN_4, Heating, 7064.00169, 9395.12225, 0.20309, 0.27011, CHICAGO ANN HTG 99.6% CONDNS DB, 1/21 06:00:00, -20.60000, 6.12575E-004, 131.25358, 7.06424, 8.83030E-002, 0.00000
 Zone Sizing Information, PERIMETER_TOP_ZN_1, Cooling, 12142.98527, 16150.17041, 0.90360, 1.20178, CHICAGO ANN CLG .4% CONDNS WB=>MDB, 7/21 13:20:00, 30.84333, 1.87971E-002, 207.33814, 11.15921, 0.13949, 0.00000
 Zone Sizing Information, PERIMETER_TOP_ZN_1, Heating, 14981.44924, 19925.32749, 0.43073, 0.57287, CHICAGO ANN HTG 99.6% CONDNS DB, 1/21 06:00:00, -20.60000, 6.12575E-004, 207.33814, 11.15921, 0.13949, 0.00000
 Zone Sizing Information, PERIMETER_TOP_ZN_2, Cooling, 10709.59486, 14243.76116, 0.79692, 1.05990, CHICAGO ANN CLG .4% CONDNS WB=>MDB, 7/21 08:40:00, 24.63733, 1.87850E-002, 131.26219, 7.06470, 8.83088E-002, 0.00000
 Zone Sizing Information, PERIMETER_TOP_ZN_2, Heating, 9743.59624, 12958.98300, 0.28013, 0.37258, CHICAGO ANN HTG 99.6% CONDNS DB, 1/21 06:00:00, -20.60000, 6.12575E-004, 131.26219, 7.06470, 8.83088E-002, 0.00000
 Zone Sizing Information, PERIMETER_TOP_ZN_3, Cooling, 9183.42278, 12213.95230, 0.68338, 0.90889, CHICAGO ANN CLG .4% CONDNS WB=>MDB, 7/21 18:20:00, 28.09700, 1.87917E-002, 207.33814, 11.15921, 0.13949, 0.00000
 Zone Sizing Information, PERIMETER_TOP_ZN_3, Heating, 14892.81557, 19807.44471, 0.42818, 0.56948, CHICAGO ANN HTG 99.6% CONDNS DB, 1/21 06:00:00, -20.60000, 6.12575E-004, 207.33814, 11.15921, 0.13949, 0.00000
 Zone Sizing Information, PERIMETER_TOP_ZN_4, Cooling, 12320.22121, 16385.89421, 0.91677, 1.21930, CHICAGO ANN CLG .4% CONDNS WB=>MDB, 7/21 17:00:00, 29.70200, 1.87949E-002, 131.25358, 7.06424, 8.83030E-002, 0.00000
 Zone Sizing Information, PERIMETER_TOP_ZN_4, Heating, 9801.40082, 13035.86310, 0.28179, 0.37479, CHICAGO ANN HTG 99.6% CONDNS DB, 1/21 06:00:00, -20.60000, 6.12575E-004, 131.25358, 7.06424, 8.83030E-002, 0.00000
! <System Sizing Information>, System Name, Load Type, Peak Load Kind, User Design Capacity, Calc Des Air Flow Rate [m3/s], User Des Air Flow Rate [m3/s], Design Day Name, Date/Time of Peak
 System Sizing Information, VAV_1, Cooling, Sensible, 101663.94, 6.80160, 6.80160, CHICAGO ANN CLG .4% CONDNS WB=>MDB, 7/21 00:00:00
 System Sizing Information, VAV_1, Heating, Sensible, 45218.66, 1.91025, 1.91025, CHICAGO ANN HTG 99.6% CONDNS DB, 1/21 13:20:00
 System Sizing Information, VAV_2, Cooling, Sensible, 106725.07, 7.35415, 7.35415, CHICAGO ANN CLG .4% CONDNS WB=>MDB, 7/21 00:00:00
 System Sizing Information, VAV_2, Heating, Sensible, 44705.40, 2.01141, 2.01141, CHICAGO ANN HTG 99.6% CONDNS DB, 1/21 18:00:00
 System Sizing Information, VAV_3, Cooling, Sensible, 109667.95, 7.49618, 7.49618, CHICAGO ANN CLG .4% CONDNS WB=>MDB, 7/21 00:00:00
 System Sizing Information, VAV_3, Heating, Sensible, 40031.46, 2.93228, 2.93228, CHICAGO ANN HTG 99.6% CONDNS DB, 1/21 18:00:00
! <Component Sizing Information>, Component Type, Component Name, Input Field Description, Value
 Component Sizing Information, AirTerminal:SingleDuct:VAV:Reheat, CORE_BOTTOM VAV BOX COMPONENT, Design Size Maximum Air Flow Rate [m3/s], 3.24427
 Component Sizing Information, AirTerminal:SingleDuct:VAV:Reheat, CORE_BOTTOM VAV BOX COMPONENT, Design Size Constant Minimum Air Flow Fraction, 0.23101
 Component Sizing Information, AirTerminal:SingleDuct:VAV:Reheat, CORE_BOTTOM VAV BOX COMPONENT, User-Specified Constant Minimum Air Flow Fraction, 0.30000
 Component Sizing Information, AirTerminal:SingleDuct:VAV:Reheat, CORE_BOTTOM VAV BOX COMPONENT, Design Size Minimum Air Flow Rate [m3/s], 0.97328
 Component Sizing Information, AirTerminal:SingleDuct:VAV:Reheat, CORE_BOTTOM VAV BOX COMPONENT, Design Size Maximum Flow per Zone Floor Area during Reheat [m3/s-m2], 9.89574E-004
 Component Sizing Information, AirTerminal:SingleDuct:VAV:Reheat, CORE_BOTTOM VAV BOX COMPONENT, Design Size Maximum Flow Fraction during Reheat [], 0.30000
 Component Sizing Information, Coil:Heating:Electric, CORE_BOTTOM VAV BOX REHEAT COIL, Design Size Nominal Capacity [W], 38861.99979
 Component Sizing Information, AirTerminal:SingleDuct:VAV:Reheat, CORE_MID VAV BOX COMPONENT, Design Size Maximum Air Flow Rate [m3/s], 3.16304
 Component Sizing Information, AirTerminal:SingleDuct:VAV:Reheat, CORE_MID VAV BOX COMPONENT, Design Size Constant Minimum Air Flow Fraction, 0.23694
 Component Sizing Information, AirTerminal:SingleDuct:VAV:Reheat, CORE_MID VAV BOX COMPONENT, User-Specified Constant Minimum Air Flow Fraction, 0.30000
 Component Sizing Information, AirTerminal:SingleDuct:VAV:Reheat, CORE_MID VAV BOX COMPONENT, Design Size Minimum Air Flow Rate [m3/s], 0.94891
 Component Sizing Information, AirTerminal:SingleDuct:VAV:Reheat, CORE_MID VAV BOX COMPONENT, Design Size Maximum Flow per Zone Floor Area during Reheat [m3/s-m2], 9.64797E-004
 Component Sizing Information, AirTerminal:SingleDuct:VAV:Reheat, CORE_MID VAV BOX COMPONENT, Design Size Maximum Flow Fraction during Reheat [], 0.30000
 Component Sizing Information, Coil:Heating:Electric, CORE_MID VAV BOX REHEAT COIL, Design Size Nominal Capacity [W], 37888.95230
 Component Sizing Information, AirTerminal:SingleDuct:VAV:Reheat, CORE_TOP VAV BOX COMPONENT, Design Size Maximum Air Flow Rate [m3/s], 3.10631
 Component Sizing Information, AirTerminal:SingleDuct:VAV:Reheat, CORE_TOP VAV BOX COMPONENT, Design Size Constant Minimum Air Flow Fraction, 0.24127
 Component Sizing Information, AirTerminal:SingleDuct:VAV:Reheat, CORE_TOP VAV BOX COMPONENT, User-Specified Constant Minimum Air Flow Fraction, 0.30000
 Component Sizing Information, AirTerminal:SingleDuct:VAV:Reheat, CORE_TOP VAV BOX COMPONENT, Design Size Minimum Air Flow Rate [m3/s], 0.93189
 Component Sizing Information, AirTerminal:SingleDuct:VAV:Reheat, CORE_TOP VAV BOX COMPONENT, Design Size Maximum Flow per Zone Floor Area during Reheat [m3/s-m2], 9.47491E-004
 Component Sizing Information, AirTerminal:SingleDuct:VAV:Reheat, CORE_TOP VAV BOX COMPONENT, Design Size Maximum Flow Fraction during Reheat [], 0.30000
 Component Sizing Information, Coil:Heating:Electric, CORE_TOP VAV BOX REHEAT COIL, Design Size Nominal Capacity [W], 41629.10379
 Component Sizing Information, AirTerminal:SingleDuct:VAV:Reheat, PERIMETER_BOT_ZN_1 VAV BOX COMPONENT, Design Size Maximum Air Flow Rate [m3/s], 0.97762
 Component Sizing Information, AirTerminal:SingleDuct:VAV:Reheat, PERIMETER_BOT_ZN_1 VAV BOX COMPONENT, Design Size Constant Minimum Air Flow Fraction, 0.20000
 Component Sizing Information, AirTerminal:SingleDuct:VAV:Reheat, PERIMETER_BOT_ZN_1 VAV BOX COMPONENT, User-Specified Constant Minimum Air Flow Fraction, 0.30000
 Component Sizing Information, AirTerminal:SingleDuct:VAV:Reheat, PERIMETER_BOT_ZN_1 VAV BOX COMPONENT, Design Size Minimum Air Flow Rate [m3/s], 0.29329
 Component Sizing Information, AirTerminal:SingleDuct:VAV:Reheat, PERIMETER_BOT_ZN_1 VAV BOX COMPONENT, Design Size Maximum Flow per Zone Floor Area during Reheat [m3/s-m2], 1.41453E-003
 Component Sizing Information, AirTerminal:SingleDuct:VAV:Reheat, PERIMETER_BOT_ZN_1 VAV BOX COMPONENT, Design Size Maximum Flow Fraction during Reheat [], 0.30000
 Component Sizing Information, Coil:Heating:Electric, PERIMETER_BOT_ZN_1 VAV BOX REHEAT COIL, Design Size Nominal Capacity [W], 15051.77123
 Component Sizing Information, AirTerminal:SingleDuct:VAV:Reheat, PERIMETER_BOT_ZN_2 VAV BOX COMPONENT, Design Size Maximum Air Flow Rate [m3/s], 0.93512
 Component Sizing Information, AirTerminal:SingleDuct:VAV:Reheat, PERIMETER_BOT_ZN_2 VAV BOX COMPONENT, Design Size Constant Minimum Air Flow Fraction, 0.20000
 Component Sizing Information, AirTerminal:SingleDuct:VAV:Reheat, PERIMETER_BOT_ZN_2 VAV BOX COMPONENT, User-Specified Constant Minimum Air Flow Fraction, 0.30000
 Component Sizing Information, AirTerminal:SingleDuct:VAV:Reheat, PERIMETER_BOT_ZN_2 VAV BOX COMPONENT, Design Size Minimum Air Flow Rate [m3/s], 0.28053
 Component Sizing Information, AirTerminal:SingleDuct:VAV:Reheat, PERIMETER_BOT_ZN_2 VAV BOX COMPONENT, Design Size Maximum Flow per Zone Floor Area during Reheat [m3/s-m2], 2.13721E-003
 Component Sizing Information, AirTerminal:SingleDuct:VAV:Reheat, PERIMETER_BOT_ZN_2 VAV BOX COMPONENT, Design Size Maximum Flow Fraction during Reheat [], 0.30000
 Component Sizing Information, Coil:Heating:Electric, PERIMETER_BOT_ZN_2 VAV BOX REHEAT COIL, Design Size Nominal Capacity [W], 11201.42502
 Component Sizing Information, AirTerminal:SingleDuct:VAV:Reheat, PERIMETER_BOT_ZN_3 VAV BOX COMPONENT, Design Size Maximum Air Flow Rate [m3/s], 0.61624
 Component Sizing Information, AirTerminal:SingleDuct:VAV:Reheat, PERIMETER_BOT_ZN_3 VAV BOX COMPONENT, Design Size Constant Minimum Air Flow Fraction, 0.25638
 Component Sizing Information, AirTerminal:SingleDuct:VAV:Reheat, PERIMETER_BOT_ZN_3 VAV BOX COMPONENT, User-Specified Constant Minimum Air Flow Fraction, 0.30000
 Component Sizing Information, AirTerminal:SingleDuct:VAV:Reheat, PERIMETER_BOT_ZN_3 VAV BOX COMPONENT, Design Size Minimum Air Flow Rate [m3/s], 0.18487
 Component Sizing Information, AirTerminal:SingleDuct:VAV:Reheat, PERIMETER_BOT_ZN_3 VAV BOX COMPONENT, Design Size Maximum Flow per Zone Floor Area during Reheat [m3/s-m2], 8.91640E-004
 Component Sizing Information, AirTerminal:SingleDuct:VAV:Reheat, PERIMETER_BOT_ZN_3 VAV BOX COMPONENT, Design Size Maximum Flow Fraction during Reheat [], 0.30000
 Component Sizing Information, Coil:Heating:Electric, PERIMETER_BOT_ZN_3 VAV BOX REHEAT COIL, Design Size Nominal Capacity [W], 14828.67302
 Component Sizing Information, AirTerminal:SingleDuct:VAV:Reheat, PERIMETER_BOT_ZN_4 VAV BOX COMPONENT, Design Size Maximum Air Flow Rate [m3/s], 1.02835
 Component Sizing Information, AirTerminal:SingleDuct:VAV:Reheat, PERIMETER_BOT_ZN_4 VAV BOX COMPONENT, Design Size Constant Minimum Air Flow Fraction, 0.20000
 Component Sizing Information, AirTerminal:SingleDuct:VAV:Reheat, PERIMETER_BOT_ZN_4 VAV BOX COMPONENT, User-Specified Constant Minimum Air Flow Fraction, 0.30000
 Component Sizing Information, AirTerminal:SingleDuct:VAV:Reheat, PERIMETER_BOT_ZN_4 VAV BOX COMPONENT, Design Size Minimum Air Flow Rate [m3/s], 0.30850
 Component Sizing Information, AirTerminal:SingleDuct:VAV:Reheat, PERIMETER_BOT_ZN_4 VAV BOX COMPONENT, Design Size Maximum Flow per Zone Floor Area during Reheat [m3/s-m2], 2.35045E-003
 Component Sizing Information, AirTerminal:SingleDuct:VAV:Reheat, PERIMETER_BOT_ZN_4 VAV BOX COMPONENT, Design Size Maximum Flow Fraction during Reheat [], 0.30000
 Component Sizing Information, Coil:Heating:Electric, PERIMETER_BOT_ZN_4 VAV BOX REHEAT COIL, Design Size Nominal Capacity [W], 12318.21010
 Component Sizing Information, AirTerminal:SingleDuct:VAV:Reheat, PERIMETER_MID_ZN_1 VAV BOX COMPONENT, Design Size Maximum Air Flow Rate [m3/s], 1.16903
 Component Sizing Information, AirTerminal:SingleDuct:VAV:Reheat, PERIMETER_MID_ZN_1 VAV BOX COMPONENT, Design Size Constant Minimum Air Flow Fraction, 0.20000
 Component Sizing Information, AirTerminal:SingleDuct:VAV:Reheat, PERIMETER_MID_ZN_1 VAV BOX COMPONENT, User-Specified Constant Minimum Air Flow Fraction, 0.30000
 Component Sizing Information, AirTerminal:SingleDuct:VAV:Reheat, PERIMETER_MID_ZN_1 VAV BOX COMPONENT, Design Size Minimum Air Flow Rate [m3/s], 0.35071
 Component Sizing Information, AirTerminal:SingleDuct:VAV:Reheat, PERIMETER_MID_ZN_1 VAV BOX COMPONENT, Design Size Maximum Flow per Zone Floor Area during Reheat [m3/s-m2], 1.69149E-003
 Component Sizing Information, AirTerminal:SingleDuct:VAV:Reheat, PERIMETER_MID_ZN_1 VAV BOX COMPONENT, Design Size Maximum Flow Fraction during Reheat [], 0.30000
 Component Sizing Information, Coil:Heating:Electric, PERIMETER_MID_ZN_1 VAV BOX REHEAT COIL, Design Size Nominal Capacity [W], 16282.63978
 Component Sizing Information, AirTerminal:SingleDuct:VAV:Reheat, PERIMETER_MID_ZN_2 VAV BOX COMPONENT, Design Size Maximum Air Flow Rate [m3/s], 1.07650
 Component Sizing Information, AirTerminal:SingleDuct:VAV:Reheat, PERIMETER_MID_ZN_2 VAV BOX COMPONENT, Design Size Constant Minimum Air Flow Fraction, 0.20000
 Component Sizing Information, AirTerminal:SingleDuct:VAV:Reheat, PERIMETER_MID_ZN_2 VAV BOX COMPONENT, User-Specified Constant Minimum Air Flow Fraction, 0.30000
 Component Sizing Information, AirTerminal:SingleDuct:VAV:Reheat, PERIMETER_MID_ZN_2 VAV BOX COMPONENT, Design Size Minimum Air Flow Rate [m3/s], 0.32295
 Component Sizing Information, AirTerminal:SingleDuct:VAV:Reheat, PERIMETER_MID_ZN_2 VAV BOX COMPONENT, Design Size Maximum Flow per Zone Floor Area during Reheat [m3/s-m2], 2.46035E-003
 Component Sizing Information, AirTerminal:SingleDuct:VAV:Reheat, PERIMETER_MID_ZN_2 VAV BOX COMPONENT, Design Size Maximum Flow Fraction during Reheat [], 0.30000
 Component Sizing Information, Coil:Heating:Electric, PERIMETER_MID_ZN_2 VAV BOX REHEAT COIL, Design Size Nominal Capacity [W], 12895.04699
 Component Sizing Information, AirTerminal:SingleDuct:VAV:Reheat, PERIMETER_MID_ZN_3 VAV BOX COMPONENT, Design Size Maximum Air Flow Rate [m3/s], 0.79033
 Component Sizing Information, AirTerminal:SingleDuct:VAV:Reheat, PERIMETER_MID_ZN_3 VAV BOX COMPONENT, Design Size Constant Minimum Air Flow Fraction, 0.20000
 Component Sizing Information, AirTerminal:SingleDuct:VAV:Reheat, PERIMETER_MID_ZN_3 VAV BOX COMPONENT, User-Specified Constant Minimum Air Flow Fraction, 0.30000
 Component Sizing Information, AirTerminal:SingleDuct:VAV:Reheat, PERIMETER_MID_ZN_3 VAV BOX COMPONENT, Design Size Minimum Air Flow Rate [m3/s], 0.23710
 Component Sizing Information, AirTerminal:SingleDuct:VAV:Reheat, PERIMETER_MID_ZN_3 VAV BOX COMPONENT, Design Size Maximum Flow per Zone Floor Area during Reheat [m3/s-m2], 1.14354E-003
 Component Sizing Information, AirTerminal:SingleDuct:VAV:Reheat, PERIMETER_MID_ZN_3 VAV BOX COMPONENT, Design Size Maximum Flow Fraction during Reheat [], 0.30000
 Component Sizing Information, Coil:Heating:Electric, PERIMETER_MID_ZN_3 VAV BOX REHEAT COIL, Design Size Nominal Capacity [W], 16090.98291
 Component Sizing Information, AirTerminal:SingleDuct:VAV:Reheat, PERIMETER_MID_ZN_4 VAV BOX COMPONENT, Design Size Maximum Air Flow Rate [m3/s], 1.15523
 Component Sizing Information, AirTerminal:SingleDuct:VAV:Reheat, PERIMETER_MID_ZN_4 VAV BOX COMPONENT, Design Size Constant Minimum Air Flow Fraction, 0.20000
 Component Sizing Information, AirTerminal:SingleDuct:VAV:Reheat, PERIMETER_MID_ZN_4 VAV BOX COMPONENT, User-Specified Constant Minimum Air Flow Fraction, 0.30000
 Component Sizing Information, AirTerminal:SingleDuct:VAV:Reheat, PERIMETER_MID_ZN_4 VAV BOX COMPONENT, Design Size Minimum Air Flow Rate [m3/s], 0.34657
 Component Sizing Information, AirTerminal:SingleDuct:VAV:Reheat, PERIMETER_MID_ZN_4 VAV BOX COMPONENT, Design Size Maximum Flow per Zone Floor Area during Reheat [m3/s-m2], 2.64046E-003
 Component Sizing Information, AirTerminal:SingleDuct:VAV:Reheat, PERIMETER_MID_ZN_4 VAV BOX COMPONENT, Design Size Maximum Flow Fraction during Reheat [], 0.30000
 Component Sizing Information, Coil:Heating:Electric, PERIMETER_MID_ZN_4 VAV BOX REHEAT COIL, Design Size Nominal Capacity [W], 13838.13510
 Component Sizing Information, AirTerminal:SingleDuct:VAV:Reheat, PERIMETER_TOP_ZN_1 VAV BOX COMPONENT, Design Size Maximum Air Flow Rate [m3/s], 1.20178
 Component Sizing Information, AirTerminal:SingleDuct:VAV:Reheat, PERIMETER_TOP_ZN_1 VAV BOX COMPONENT, Design Size Constant Minimum Air Flow Fraction, 0.20000
 Component Sizing Information, AirTerminal:SingleDuct:VAV:Reheat, PERIMETER_TOP_ZN_1 VAV BOX COMPONENT, User-Specified Constant Minimum Air Flow Fraction, 0.30000
 Component Sizing Information, AirTerminal:SingleDuct:VAV:Reheat, PERIMETER_TOP_ZN_1 VAV BOX COMPONENT, Design Size Minimum Air Flow Rate [m3/s], 0.36053
[...]
 Warmup Convergence Information,FIRSTFLOOR_PLENUM,SizingPeriod: CHICAGO ANN HTG 99.6% CONDNS DB HVAC Sizing Pass 1,0.1496489326,0.2049801056,Pass,Pass,0.2667027207,0.4271947962,Pass,Pass
 Warmup Convergence Information,MIDFLOOR_PLENUM,SizingPeriod: CHICAGO ANN HTG 99.6% CONDNS DB HVAC Sizing Pass 1,0.1685047640,0.2348531276,Pass,Pass,0.2673906733,0.4274087500,Pass,Pass
 Warmup Convergence Information,PERIMETER_BOT_ZN_1,SizingPeriod: CHICAGO ANN HTG 99.6% CONDNS DB HVAC Sizing Pass 1,0.7756836744,1.1124931732,Pass,Pass,0.2552832688,0.4208844350,Pass,Pass
 Warmup Convergence Information,PERIMETER_BOT_ZN_2,SizingPeriod: CHICAGO ANN HTG 99.6% CONDNS DB HVAC Sizing Pass 1,0.8041247471,1.1833218035,Pass,Pass,0.2519444578,0.4180817611,Pass,Pass
 Warmup Convergence Information,PERIMETER_BOT_ZN_3,SizingPeriod: CHICAGO ANN HTG 99.6% CONDNS DB HVAC Sizing Pass 1,0.7652169108,1.1191706142,Pass,Pass,0.2516892892,0.4190515152,Pass,Pass
 Warmup Convergence Information,PERIMETER_BOT_ZN_4,SizingPeriod: CHICAGO ANN HTG 99.6% CONDNS DB HVAC Sizing Pass 1,0.8024108480,1.2181481417,Pass,Pass,0.2528368520,0.4180623690,Pass,Pass
 Warmup Convergence Information,PERIMETER_MID_ZN_1,SizingPeriod: CHICAGO ANN HTG 99.6% CONDNS DB HVAC Sizing Pass 1,0.8146617422,1.1739053804,Pass,Pass,0.2497251107,0.4202002519,Pass,Pass
 Warmup Convergence Information,PERIMETER_MID_ZN_2,SizingPeriod: CHICAGO ANN HTG 99.6% CONDNS DB HVAC Sizing Pass 1,0.8388929875,1.2759962898,Pass,Pass,0.2546391663,0.4172089353,Pass,Pass
 Warmup Convergence Information,PERIMETER_MID_ZN_3,SizingPeriod: CHICAGO ANN HTG 99.6% CONDNS DB HVAC Sizing Pass 1,0.8053652978,1.1831210432,Pass,Pass,0.2536954126,0.4177231142,Pass,Pass
 Warmup Convergence Information,PERIMETER_MID_ZN_4,SizingPeriod: CHICAGO ANN HTG 99.6% CONDNS DB HVAC Sizing Pass 1,0.8421207081,1.3020012485,Pass,Pass,0.2546680468,0.4173159374,Pass,Pass
 Warmup Convergence Information,PERIMETER_TOP_ZN_1,SizingPeriod: CHICAGO ANN HTG 99.6% CONDNS DB HVAC Sizing Pass 1,0.9935806511,1.5391738922,Pass,Pass,0.2718816703,0.4205080277,Pass,Pass
 Warmup Convergence Information,PERIMETER_TOP_ZN_2,SizingPeriod: CHICAGO ANN HTG 99.6% CONDNS DB HVAC Sizing Pass 1,1.0144760673,1.5582131126,Pass,Pass,0.2711641187,0.4197094997,Pass,Pass
 Warmup Convergence Information,PERIMETER_TOP_ZN_3,SizingPeriod: CHICAGO ANN HTG 99.6% CONDNS DB HVAC Sizing Pass 1,0.9871590466,1.5402107372,Pass,Pass,0.2720443562,0.4206907818,Pass,Pass
 Warmup Convergence Information,PERIMETER_TOP_ZN_4,SizingPeriod: CHICAGO ANN HTG 99.6% CONDNS DB HVAC Sizing Pass 1,1.0207668421,1.5589029889,Pass,Pass,0.2709308644,0.4194838080,Pass,Pass
 Warmup Convergence Information,TOPFLOOR_PLENUM,SizingPeriod: CHICAGO ANN HTG 99.6% CONDNS DB HVAC Sizing Pass 1,0.5568678140,0.7265030690,Pass,Pass,0.2554264977,0.4285437906,Pass,Pass
Environment,CHICAGO ANN CLG .4% CONDNS WB=>MDB HVAC Sizing Pass 1,SizingPeriod:DesignDay,07/21,07/21,SummerDesignDay,1,N/A,N/A,N/A,N/A,N/A,N/A,Clark and Allen
Environment:Daylight Saving,No,SizingPeriod:DesignDay
Environment:Design Day Data,31.20,10.70,DefaultMultipliers,Wetbulb,25.50,{C},99063,230,5.3,1.00,No,No
Environment:Design Day Misc,202,1084.4,0.2082,0.1365,1.0,-6.23,20.6,ASHRAEClearSky
Environment:WarmupDays,  6
 Warmup Convergence Information,CORE_BOTTOM,SizingPeriod: CHICAGO ANN CLG .4% CONDNS WB=>MDB HVAC Sizing Pass 1,0.3245631191,0.4985856841,Pass,Pass,0.3013337527,0.7798179530,Pass,Pass
 Warmup Convergence Information,CORE_MID,SizingPeriod: CHICAGO ANN CLG .4% CONDNS WB=>MDB HVAC Sizing Pass 1,0.2358839727,0.4067883071,Pass,Pass,0.2031736171,0.4059653756,Pass,Pass
 Warmup Convergence Information,CORE_TOP,SizingPeriod: CHICAGO ANN CLG .4% CONDNS WB=>MDB HVAC Sizing Pass 1,0.2138929293,0.3895492279,Pass,Pass,0.2048331997,0.4198644826,Pass,Pass
 Warmup Convergence Information,FIRSTFLOOR_PLENUM,SizingPeriod: CHICAGO ANN CLG .4% CONDNS WB=>MDB HVAC Sizing Pass 1,9.7435742350E-002,0.1561659124,Pass,Pass,1.0324040885,2.7531772356,Pass,Pass
 Warmup Convergence Information,MIDFLOOR_PLENUM,SizingPeriod: CHICAGO ANN CLG .4% CONDNS WB=>MDB HVAC Sizing Pass 1,7.7262903470E-002,0.1244718633,Pass,Pass,0.6992359158,2.1843220863,Pass,Pass
 Warmup Convergence Information,PERIMETER_BOT_ZN_1,SizingPeriod: CHICAGO ANN CLG .4% CONDNS WB=>MDB HVAC Sizing Pass 1,0.3308055533,0.5125192785,Pass,Pass,0.3546088908,1.0095974364,Pass,Pass
 Warmup Convergence Information,PERIMETER_BOT_ZN_2,SizingPeriod: CHICAGO ANN CLG .4% CONDNS WB=>MDB HVAC Sizing Pass 1,0.4180068967,0.6471049051,Pass,Pass,0.4469454431,1.3791653721,Pass,Pass
 Warmup Convergence Information,PERIMETER_BOT_ZN_3,SizingPeriod: CHICAGO ANN CLG .4% CONDNS WB=>MDB HVAC Sizing Pass 1,0.2631248214,0.4113928050,Pass,Pass,0.2810596596,0.7169626554,Pass,Pass
 Warmup Convergence Information,PERIMETER_BOT_ZN_4,SizingPeriod: CHICAGO ANN CLG .4% CONDNS WB=>MDB HVAC Sizing Pass 1,0.4449239354,0.6775671234,Pass,Pass,0.4853526459,1.5134800521,Pass,Pass
 Warmup Convergence Information,PERIMETER_MID_ZN_1,SizingPeriod: CHICAGO ANN CLG .4% CONDNS WB=>MDB HVAC Sizing Pass 1,0.2701933357,0.5136664202,Pass,Pass,0.1923733735,0.3752396899,Pass,Pass
 Warmup Convergence Information,PERIMETER_MID_ZN_2,SizingPeriod: CHICAGO ANN CLG .4% CONDNS WB=>MDB HVAC Sizing Pass 1,0.3408045668,0.6284119688,Pass,Pass,0.1887037130,0.3695349873,Pass,Pass
 Warmup Convergence Information,PERIMETER_MID_ZN_3,SizingPeriod: CHICAGO ANN CLG .4% CONDNS WB=>MDB HVAC Sizing Pass 1,0.2247719262,0.4161220388,Pass,Pass,0.2013091459,0.3976705357,Pass,Pass
 Warmup Convergence Information,PERIMETER_MID_ZN_4,SizingPeriod: CHICAGO ANN CLG .4% CONDNS WB=>MDB HVAC Sizing Pass 1,0.3638154665,0.6548148095,Pass,Pass,0.1919547423,0.3698415963,Pass,Pass
 Warmup Convergence Information,PERIMETER_TOP_ZN_1,SizingPeriod: CHICAGO ANN CLG .4% CONDNS WB=>MDB HVAC Sizing Pass 1,0.2631638128,0.4999884068,Pass,Pass,0.1928233896,0.3763944612,Pass,Pass
 Warmup Convergence Information,PERIMETER_TOP_ZN_2,SizingPeriod: CHICAGO ANN CLG .4% CONDNS WB=>MDB HVAC Sizing Pass 1,0.3275229239,0.6013859369,Pass,Pass,0.1887223628,0.3702603734,Pass,Pass
 Warmup Convergence Information,PERIMETER_TOP_ZN_3,SizingPeriod: CHICAGO ANN CLG .4% CONDNS WB=>MDB HVAC Sizing Pass 1,0.2228776619,0.4346207900,Pass,Pass,0.1977044944,0.3903826614,Pass,Pass
 Warmup Convergence Information,PERIMETER_TOP_ZN_4,SizingPeriod: CHICAGO ANN CLG .4% CONDNS WB=>MDB HVAC Sizing Pass 1,0.3682695987,0.6464935153,Pass,Pass,0.1918271918,0.3701517547,Pass,Pass
 Warmup Convergence Information,TOPFLOOR_PLENUM,SizingPeriod: CHICAGO ANN CLG .4% CONDNS WB=>MDB HVAC Sizing Pass 1,9.8774638053E-002,0.1159826199,Pass,Pass,0.5657949890,1.4618377694,Pass,Pass
Environment,CHICAGO ANN HTG 99.6% CONDNS DB,SizingPeriod:DesignDay,01/21,01/21,WinterDesignDay,1,N/A,N/A,N/A,N/A,N/A,N/A,Clark and Allen
Environment:Daylight Saving,No,SizingPeriod:DesignDay
Environment:Design Day Data,-20.60,0.00,DefaultMultipliers,Wetbulb,-20.60,{C},99063,270,4.9,0.00,No,No
Environment:Design Day Misc, 21,1229.0,0.1415,5.7310E-002,1.0,-11.15,-20.1,ASHRAEClearSky
 Component Sizing Information, PlantLoop, SWHSYS1, Maximum Loop Flow Rate [m3/s], 3.12000E-005
 Component Sizing Information, PlantLoop, SWHSYS1, Plant Loop Volume [m3], 3.74400E-003
 Component Sizing Information, WaterHeater:Mixed, SWHSYS1 WATER HEATER, Use Side Design Flow Rate [m3/s], 3.12000E-005
 Component Sizing Information, Pump:ConstantSpeed, SWHSYS1 PUMP, Design Flow Rate [m3/s], 3.12000E-005
 Component Sizing Information, Pump:ConstantSpeed, SWHSYS1 PUMP, Design Power Consumption [W], 8.44009
Environment,CHICAGO ANN CLG .4% CONDNS WB=>MDB,SizingPeriod:DesignDay,07/21,07/21,SummerDesignDay,1,N/A,N/A,N/A,N/A,N/A,N/A,Clark and Allen
Environment:Daylight Saving,No,SizingPeriod:DesignDay
Environment:Design Day Data,31.20,10.70,DefaultMultipliers,Wetbulb,25.50,{C},99063,230,5.3,1.00,No,No
Environment:Design Day Misc,202,1084.4,0.2082,0.1365,1.0,-6.23,20.6,ASHRAEClearSky
Environment,ANNUAL,WeatherFileRunPeriod,01/01/2017,12/31/2017,Sunday,365,Use RunPeriod Specified Day,No,No,No,Yes,Yes,Clark and Allen
Environment,CHICAGO ANN HTG 99.6% CONDNS DB HVAC Sizing Pass 1,SizingPeriod:DesignDay,01/21,01/21,WinterDesignDay,1,N/A,N/A,N/A,N/A,N/A,N/A,Clark and Allen
Environment:Daylight Saving,No,SizingPeriod:DesignDay
Environment:Design Day Data,-20.60,0.00,DefaultMultipliers,Wetbulb,-20.60,{C},99063,270,4.9,0.00,No,No
Environment:Design Day Misc, 21,1229.0,0.1415,5.7310E-002,1.0,-11.15,-20.1,ASHRAEClearSky
Environment,CHICAGO ANN CLG .4% CONDNS WB=>MDB HVAC Sizing Pass 1,SizingPeriod:DesignDay,07/21,07/21,SummerDesignDay,1,N/A,N/A,N/A,N/A,N/A,N/A,Clark and Allen
Environment:Daylight Saving,No,SizingPeriod:DesignDay
Environment:Design Day Data,31.20,10.70,DefaultMultipliers,Wetbulb,25.50,{C},99063,230,5.3,1.00,No,No
Environment:Design Day Misc,202,1084.4,0.2082,0.1365,1.0,-6.23,20.6,ASHRAEClearSky
Environment,CHICAGO ANN HTG 99.6% CONDNS DB,SizingPeriod:DesignDay,01/21,01/21,WinterDesignDay,1,N/A,N/A,N/A,N/A,N/A,N/A,Clark and Allen
Environment:Daylight Saving,No,SizingPeriod:DesignDay
Environment:Design Day Data,-20.60,0.00,DefaultMultipliers,Wetbulb,-20.60,{C},99063,270,4.9,0.00,No,No
Environment:Design Day Misc, 21,1229.0,0.1415,5.7310E-002,1.0,-11.15,-20.1,ASHRAEClearSky
Environment:WarmupDays,  6
 Warmup Convergence Information,CORE_BOTTOM,SizingPeriod: CHICAGO ANN HTG 99.6% CONDNS DB,0.1157995112,0.1995651074,Pass,Pass,0.4467669302,1.3120664315,Pass,Pass
 Warmup Convergence Information,CORE_MID,SizingPeriod: CHICAGO ANN HTG 99.6% CONDNS DB,0.1389056846,0.2391974963,Pass,Pass,0.2905498590,0.4490165501,Pass,Pass
 Warmup Convergence Information,CORE_TOP,SizingPeriod: CHICAGO ANN HTG 99.6% CONDNS DB,0.3616904444,0.5604325130,Pass,Pass,0.3189200891,0.4953506782,Pass,Pass
 Warmup Convergence Information,FIRSTFLOOR_PLENUM,SizingPeriod: CHICAGO ANN HTG 99.6% CONDNS DB,0.1496489326,0.2049801056,Pass,Pass,0.2667027207,0.4271947962,Pass,Pass
 Warmup Convergence Information,MIDFLOOR_PLENUM,SizingPeriod: CHICAGO ANN HTG 99.6% CONDNS DB,0.1685047640,0.2348531276,Pass,Pass,0.2673906733,0.4274087500,Pass,Pass
 Warmup Convergence Information,PERIMETER_BOT_ZN_1,SizingPeriod: CHICAGO ANN HTG 99.6% CONDNS DB,0.7756836744,1.1124931732,Pass,Pass,0.2552832688,0.4208844350,Pass,Pass
 Warmup Convergence Information,PERIMETER_BOT_ZN_2,SizingPeriod: CHICAGO ANN HTG 99.6% CONDNS DB,0.8041247471,1.1833218035,Pass,Pass,0.2519444578,0.4180817611,Pass,Pass
 Warmup Convergence Information,PERIMETER_BOT_ZN_3,SizingPeriod: CHICAGO ANN HTG 99.6% CONDNS DB,0.7652169108,1.1191706142,Pass,Pass,0.2516892892,0.4190515152,Pass,Pass
 Warmup Convergence Information,PERIMETER_BOT_ZN_4,SizingPeriod: CHICAGO ANN HTG 99.6% CONDNS DB,0.8024108480,1.2181481417,Pass,Pass,0.2528368520,0.4180623690,Pass,Pass
 Warmup Convergence Information,PERIMETER_MID_ZN_1,SizingPeriod: CHICAGO ANN HTG 99.6% CONDNS DB,0.8146617422,1.1739053804,Pass,Pass,0.2497251107,0.4202002519,Pass,Pass
 Warmup Convergence Information,PERIMETER_MID_ZN_2,SizingPeriod: CHICAGO ANN HTG 99.6% CONDNS DB,0.8388929875,1.2759962898,Pass,Pass,0.2546391663,0.4172089353,Pass,Pass
 Warmup Convergence Information,PERIMETER_MID_ZN_3,SizingPeriod: CHICAGO ANN HTG 99.6% CONDNS DB,0.8053652978,1.1831210432,Pass,Pass,0.2536954126,0.4177231142,Pass,Pass
 Warmup Convergence Information,PERIMETER_MID_ZN_4,SizingPeriod: CHICAGO ANN HTG 99.6% CONDNS DB,0.8421207081,1.3020012485,Pass,Pass,0.2546680468,0.4173159374,Pass,Pass
 Warmup Convergence Information,PERIMETER_TOP_ZN_1,SizingPeriod: CHICAGO ANN HTG 99.6% CONDNS DB,0.9935806511,1.5391738922,Pass,Pass,0.2718816703,0.4205080277,Pass,Pass
 Warmup Convergence Information,PERIMETER_TOP_ZN_2,SizingPeriod: CHICAGO ANN HTG 99.6% CONDNS DB,1.0144760673,1.5582131126,Pass,Pass,0.2711641187,0.4197094997,Pass,Pass
 Warmup Convergence Information,PERIMETER_TOP_ZN_3,SizingPeriod: CHICAGO ANN HTG 99.6% CONDNS DB,0.9871590466,1.5402107372,Pass,Pass,0.2720443562,0.4206907818,Pass,Pass
 Warmup Convergence Information,PERIMETER_TOP_ZN_4,SizingPeriod: CHICAGO ANN HTG 99.6% CONDNS DB,1.0207668421,1.5589029889,Pass,Pass,0.2709308644,0.4194838080,Pass,Pass
 Warmup Convergence Information,TOPFLOOR_PLENUM,SizingPeriod: CHICAGO ANN HTG 99.6% CONDNS DB,0.5568678140,0.7265030690,Pass,Pass,0.2554264977,0.4285437906,Pass,Pass
Environment,CHICAGO ANN CLG .4% CONDNS WB=>MDB,SizingPeriod:DesignDay,07/21,07/21,SummerDesignDay,1,N/A,N/A,N/A,N/A,N/A,N/A,Clark and Allen
Environment:Daylight Saving,No,SizingPeriod:DesignDay
Environment:Design Day Data,31.20,10.70,DefaultMultipliers,Wetbulb,25.50,{C},99063,230,5.3,1.00,No,No
Environment:Design Day Misc,202,1084.4,0.2082,0.1365,1.0,-6.23,20.6,ASHRAEClearSky
Environment:WarmupDays,  6
 Warmup Convergence Information,CORE_BOTTOM,SizingPeriod: CHICAGO ANN CLG .4% CONDNS WB=>MDB,0.3245631191,0.4985856841,Pass,Pass,0.3013337527,0.7798179530,Pass,Pass
 Warmup Convergence Information,CORE_MID,SizingPeriod: CHICAGO ANN CLG .4% CONDNS WB=>MDB,0.2358839727,0.4067883071,Pass,Pass,0.2031736171,0.4059653756,Pass,Pass
 Warmup Convergence Information,CORE_TOP,SizingPeriod: CHICAGO ANN CLG .4% CONDNS WB=>MDB,0.2138929293,0.3895492278,Pass,Pass,0.2048331997,0.4198644826,Pass,Pass
 Warmup Convergence Information,FIRSTFLOOR_PLENUM,SizingPeriod: CHICAGO ANN CLG .4% CONDNS WB=>MDB,9.7435742350E-002,0.1561659124,Pass,Pass,1.0324040885,2.7531772357,Pass,Pass
 Warmup Convergence Information,MIDFLOOR_PLENUM,SizingPeriod: CHICAGO ANN CLG .4% CONDNS WB=>MDB,7.7262903470E-002,0.1244718633,Pass,Pass,0.6992359158,2.1843220862,Pass,Pass
 Warmup Convergence Information,PERIMETER_BOT_ZN_1,SizingPeriod: CHICAGO ANN CLG .4% CONDNS WB=>MDB,0.3308055533,0.5125192785,Pass,Pass,0.3546088908,1.0095974364,Pass,Pass
 Warmup Convergence Information,PERIMETER_BOT_ZN_2,SizingPeriod: CHICAGO ANN CLG .4% CONDNS WB=>MDB,0.4180068967,0.6471049051,Pass,Pass,0.4469454431,1.3791653721,Pass,Pass
 Warmup Convergence Information,PERIMETER_BOT_ZN_3,SizingPeriod: CHICAGO ANN CLG .4% CONDNS WB=>MDB,0.2631248214,0.4113928050,Pass,Pass,0.2810596596,0.7169626554,Pass,Pass
 Warmup Convergence Information,PERIMETER_BOT_ZN_4,SizingPeriod: CHICAGO ANN CLG .4% CONDNS WB=>MDB,0.4449239354,0.6775671234,Pass,Pass,0.4853526459,1.5134800521,Pass,Pass
 Warmup Convergence Information,PERIMETER_MID_ZN_1,SizingPeriod: CHICAGO ANN CLG .4% CONDNS WB=>MDB,0.2701933357,0.5136664202,Pass,Pass,0.1923733735,0.3752396899,Pass,Pass
 Warmup Convergence Information,PERIMETER_MID_ZN_2,SizingPeriod: CHICAGO ANN CLG .4% CONDNS WB=>MDB,0.3408045668,0.6284119688,Pass,Pass,0.1887037130,0.3695349873,Pass,Pass
 Warmup Convergence Information,PERIMETER_MID_ZN_3,SizingPeriod: CHICAGO ANN CLG .4% CONDNS WB=>MDB,0.2247719262,0.4161220388,Pass,Pass,0.2013091459,0.3976705357,Pass,Pass
 Warmup Convergence Information,PERIMETER_MID_ZN_4,SizingPeriod: CHICAGO ANN CLG .4% CONDNS WB=>MDB,0.3638154665,0.6548148095,Pass,Pass,0.1919547423,0.3698415963,Pass,Pass
 Warmup Convergence Information,PERIMETER_TOP_ZN_1,SizingPeriod: CHICAGO ANN CLG .4% CONDNS WB=>MDB,0.2631638127,0.4999884068,Pass,Pass,0.1928233896,0.3763944612,Pass,Pass
 Warmup Convergence Information,PERIMETER_TOP_ZN_2,SizingPeriod: CHICAGO ANN CLG .4% CONDNS WB=>MDB,0.3275229239,0.6013859369,Pass,Pass,0.1887223628,0.3702603734,Pass,Pass
 Warmup Convergence Information,PERIMETER_TOP_ZN_3,SizingPeriod: CHICAGO ANN CLG .4% CONDNS WB=>MDB,0.2228776619,0.4346207900,Pass,Pass,0.1977044944,0.3903826614,Pass,Pass
 Warmup Convergence Information,PERIMETER_TOP_ZN_4,SizingPeriod: CHICAGO ANN CLG .4% CONDNS WB=>MDB,0.3682695987,0.6464935152,Pass,Pass,0.1918271918,0.3701517548,Pass,Pass
 Warmup Convergence Information,TOPFLOOR_PLENUM,SizingPeriod: CHICAGO ANN CLG .4% CONDNS WB=>MDB,9.8774638054E-002,0.1159826199,Pass,Pass,0.5657949891,1.4618377743,Pass,Pass
Environment,ANNUAL,WeatherFileRunPeriod,01/01/2017,12/31/2017,Sunday,365,Use RunPeriod Specified Day,No,No,No,Yes,Yes,Clark and Allen
Environment:Daylight Saving,Yes,InputFile,03/12,11/05
Environment:Special Days,NEW YEARS DAY,Holiday,InputFile,01/01,  1Environment:Special Days,VETERANS DAY,Holiday,InputFile,11/11,  1Environment:Special Days,CHRISTMAS,Holiday,InputFile,12/25,  1Environment:Special Days,INDEPENDENCE DAY,Holiday,InputFile,07/04,  1Environment:Special Days,MLK DAY,Holiday,InputFile,01/16,  1Environment:Special Days,PRESIDENTS DAY,Holiday,InputFile,02/20,  1Environment:Special Days,MEMORIAL DAY,Holiday,InputFile,05/29,  1Environment:Special Days,LABOR DAY,Holiday,InputFile,09/04,  1Environment:Special Days,COLUMBUS DAY,Holiday,InputFile,10/09,  1Environment:Special Days,THANKSGIVING,Holiday,InputFile,11/23,  1Environment:WarmupDays,  9
 Warmup Convergence Information,CORE_BOTTOM,RunPeriod: ANNUAL,0.1840850074,0.1512399611,Pass,Pass,0.7294749495,2.7864915327,Pass,Pass
 Warmup Convergence Information,CORE_MID,RunPeriod: ANNUAL,7.2188744450E-002,5.8031972395E-002,Pass,Pass,0.5214423003,0.4926410437,Pass,Pass
 Warmup Convergence Information,CORE_TOP,RunPeriod: ANNUAL,0.2122340016,0.2252841955,Pass,Pass,0.5453434720,0.4749631410,Pass,Pass
 Warmup Convergence Information,FIRSTFLOOR_PLENUM,RunPeriod: ANNUAL,9.2950702989E-002,7.9898596949E-002,Pass,Pass,0.4133325940,0.4730856482,Pass,Pass
 Warmup Convergence Information,MIDFLOOR_PLENUM,RunPeriod: ANNUAL,0.1309758792,0.1048513005,Pass,Pass,0.5046569405,0.4819445781,Pass,Pass
 Warmup Convergence Information,PERIMETER_BOT_ZN_1,RunPeriod: ANNUAL,0.2477241957,0.3228786484,Pass,Pass,0.9165880581,4.2210703058,Pass,Pass
 Warmup Convergence Information,PERIMETER_BOT_ZN_2,RunPeriod: ANNUAL,0.2748712341,0.3724274446,Pass,Pass,0.5724588840,1.3792355117,Pass,Pass
 Warmup Convergence Information,PERIMETER_BOT_ZN_3,RunPeriod: ANNUAL,0.2899459967,0.3740130135,Pass,Pass,0.6649004535,2.2602424349,Pass,Pass
 Warmup Convergence Information,PERIMETER_BOT_ZN_4,RunPeriod: ANNUAL,0.3081269975,0.3944172989,Pass,Pass,0.6241683545,1.9352424373,Pass,Pass
 Warmup Convergence Information,PERIMETER_MID_ZN_1,RunPeriod: ANNUAL,0.4272305095,0.5347945924,Pass,Pass,0.5934876593,1.0107186129,Pass,Pass
 Warmup Convergence Information,PERIMETER_MID_ZN_2,RunPeriod: ANNUAL,0.5008396648,0.6019156163,Pass,Pass,0.5069216554,0.5211455466,Pass,Pass
 Warmup Convergence Information,PERIMETER_MID_ZN_3,RunPeriod: ANNUAL,0.5725845951,0.6195552820,Pass,Pass,0.4900289984,0.4814015365,Pass,Pass
 Warmup Convergence Information,PERIMETER_MID_ZN_4,RunPeriod: ANNUAL,0.5816007545,0.6412405847,Pass,Pass,0.4904662497,0.4815368944,Pass,Pass
 Warmup Convergence Information,PERIMETER_TOP_ZN_1,RunPeriod: ANNUAL,0.6009766618,0.7521087066,Pass,Pass,0.5983813291,0.8279189383,Pass,Pass
 Warmup Convergence Information,PERIMETER_TOP_ZN_2,RunPeriod: ANNUAL,0.7375164532,0.8153855294,Pass,Pass,0.5247494843,0.4729600344,Pass,Pass
 Warmup Convergence Information,PERIMETER_TOP_ZN_3,RunPeriod: ANNUAL,0.8144447396,0.8628660865,Pass,Pass,0.5302873109,0.4696760441,Pass,Pass
 Warmup Convergence Information,PERIMETER_TOP_ZN_4,RunPeriod: ANNUAL,0.8190309870,0.8753465520,Pass,Pass,0.5319675602,0.4709949420,Pass,Pass
 Warmup Convergence Information,TOPFLOOR_PLENUM,RunPeriod: ANNUAL,0.5582110916,0.3992043655,Pass,Pass,0.4896162608,0.4919576641,Pass,Pass
Environment,CHICAGO ANN HTG 99.6% CONDNS DB HVAC Sizing Pass 1,SizingPeriod:DesignDay,01/21,01/21,WinterDesignDay,1,N/A,N/A,N/A,N/A,N/A,N/A,Clark and Allen
Environment:Daylight Saving,No,SizingPeriod:DesignDay
Environment,CHICAGO ANN CLG .4% CONDNS WB=>MDB HVAC Sizing Pass 1,SizingPeriod:DesignDay,07/21,07/21,SummerDesignDay,1,N/A,N/A,N/A,N/A,N/A,N/A,Clark and Allen
Environment:Daylight Saving,No,SizingPeriod:DesignDay
! <Program Control Information:Threads/Parallel Sims>, Threading Supported,Maximum Number of Threads, Env Set Threads (OMP_NUM_THREADS), EP Env Set Threads (EP_OMP_NUM_THREADS), IDF Set Threads, Number of Threads Used (Interior Radiant Exchange), Number Nominal Surfaces, Number Parallel Sims
Program Control:Threads/Parallel Sims, No,1, N/A, N/A, N/A, N/A, N/A, N/A
End of Data
